68
CSD_code = EWEDOA | q = 0 | S = 0 | Stoichiometry = C24H35N3O4SZn | MND = 5
Zn        7.23252033249288    3.63129933259180    1.10395934960877
S         7.43775208732881    4.29338986949448   -3.31803978482607
O         7.64503044983212    4.20124582261202    2.83281960820160
O         5.74983260344849    2.45471341816229    1.46198704073175
O         3.15384546357191    0.30392884027653   -0.93803028473697
N         8.41136970740751    4.98237133651475    0.35072747299103
N         8.38904601493429    5.04454234093351   -1.00709566812546
N         6.67921948110685    3.49100940779024   -0.82996084944540
C         8.51990142604524    5.04696342931015    3.26598068399696
C         8.72317846447038    5.20999202007564    4.67603949851607
C         9.66504991578409    6.10596983668108    5.11465352799628
H         9.81404949587282    6.22091179916803    6.17450483003609
C        10.45826679073728    6.89812693417306    4.26308806760044
C        10.26860212645773    6.75182914810652    2.91687859628672
H        10.83907110654031    7.32689177132779    2.20478063609605
C         9.32412052639053    5.84428797812355    2.39110482078874
C         9.20822265615758    5.78734611775626    0.98169424065868
H         9.82185776914981    6.46778206858590    0.38788657893629
C         7.51132185438346    4.27286942452979   -1.55662508435259
C         5.74659314164884    2.74826139652977   -1.37319001400830
H         5.67889065108622    2.77986910599299   -2.46039677417508
C         4.85314476317788    1.93556226285644   -0.67361175473161
C         4.90702448947737    1.85134694011714    0.75807436278039
C         3.91495870207018    1.01068821849100    1.50763513850086
H         4.07370293724216    1.15049322132601    2.57464300381607
H         4.03682854908080   -0.03731163569134    1.24352075746791
H         2.89791576708197    1.28403459287407    1.23838186783564
C         3.86189285771576    1.15760324537627   -1.43705928478886
C         3.72964885562265    1.44717276173558   -2.92051296744092
H         2.88653182274952    0.87385409642825   -3.29910006056407
H         4.62540165767428    1.13692499011830   -3.45393626302102
H         3.55497219753216    2.50423708408195   -3.10274775084161
C         8.73871675256090    5.50193955817292   -3.66080145026965
H         8.78497183231285    5.60424590631123   -4.74012137803410
H         9.67783425662217    5.13201007037403   -3.26367700791634
H         8.47696476439239    6.44372684627910   -3.19068981894632
C         7.88739307506805    4.38743092494663    5.65177857807138
C         8.11980243472623    2.89234646131186    5.38995777014812
H         7.56907115065762    2.29629036034627    6.11477280684264
H         9.17877914149970    2.65268238551705    5.47672864345936
H         7.77364462347762    2.63279026462239    4.39489091757583
C         6.40433819445155    4.72420518657200    5.44663215081404
H         5.79080159711369    4.14926744022154    6.13737863122854
H         6.09992396972790    4.48905422531773    4.43173567797867
H         6.23168113107751    5.78343315118582    5.62708200676206
C         8.23638338160990    4.66466115834593    7.11814494750675
H         7.60488602418118    4.04922312117890    7.75597963529450
H         8.05573200962480    5.70523105460187    7.37790496273373
H         9.27302535720274    4.41368403755022    7.33347707432088
C        11.46251593777747    7.86187968409161    4.87555323322563
C        12.47075871989068    7.07215179143387    5.72196071048993
H        13.20854901056928    7.74620663358325    6.15230201578920
H        12.98894686187629    6.34185019245138    5.10385376222724
H        11.98010296761235    6.54356714461699    6.53438985026712
C        10.71657836576131    8.86970474187594    5.76112712606986
H        11.41683635927021    9.58415705296554    6.18907374695360
H        10.19682274719101    8.37414036027526    6.57623182343384
H         9.98291963374674    9.41512303819844    5.17141802700619
C        12.24102407193104    8.64472006728121    3.81482519162677
H        12.94333909259931    9.31793964032629    4.30238133894474
H        11.57108764109722    9.24367892714620    3.20265883494116
H        12.80792567608182    7.97462258199463    3.17275722049627
O         8.56152768957998    1.88706822378118    1.35461406080548
H         8.08572766983206    1.42114499824910    2.05383131399274
C         9.91576999858050    2.02288874023335    1.76081855442230
H        10.44027959323710    2.53360671498121    0.95584897064568
H        10.36353367043268    1.03754323125504    1.91571431698717
H        10.00333993234648    2.61707690594672    2.67331221230917

