76
CSD_code = EWEGUK | q = 0 | S = 0 | Stoichiometry = C32H34CuF4N3O2 | MND = 2
Cu        3.09872897580860    3.04989674237444    3.74871079281041
N         4.47998083009349    0.89340419173136    5.02025006884659
N         4.01918691013055    0.30075000238085    3.01535833064416
N         2.72827360313638    4.84739546695657    4.30942304219321
O         1.14459571405950    6.31077284658337    3.47406549219879
O         1.32087182585317    4.11374146048169    2.83392829616101
C         3.89949750757515    1.32392300668370    3.88304543098552
C         4.95854253721442   -0.37847468731042    4.86776059970661
H         5.45049650077458   -0.90529269935991    5.65921723984488
C         4.66468006046906   -0.75550403674306    3.60001969646046
H         4.86551391900291   -1.66540799101288    3.07319675929752
C         4.59491064273293    1.69305673419670    6.19102395951288
C         5.81833593289794    2.29427520298755    6.48308383228636
C         6.99105071914515    2.11833275378906    5.56885641888936
H         7.26953575332340    1.06914223515805    5.47669229231789
H         7.84613467370378    2.67490298650769    5.94026777934770
H         6.74026778343783    2.49383803997515    4.57756895955515
C         5.90691717681493    3.08961376456106    7.61523529192485
H         6.84730027400252    3.56706605303517    7.84698146088701
C         4.80998230703428    3.30739887914682    8.43605402441636
C         4.92277074784842    4.16705727704896    9.65650578638750
H         5.78841883506414    4.82043253629625    9.59092959091288
H         5.03387321658722    3.54183487407769   10.54290589626768
H         4.02837724385449    4.77244174683032    9.78417950232366
C         3.60316052378652    2.70091166432492    8.11430813985020
H         2.74173723229553    2.87012094131662    8.74362864605956
C         3.47550976865401    1.88791427272257    6.99980300100026
C         2.16343645339152    1.25194509514389    6.65477696613315
H         2.28654698599591    0.19138840989913    6.43743373697193
H         1.74490733033920    1.73263810061618    5.76873867856964
H         1.45846044886216    1.36318476099292    7.47371538695692
C         3.52995738070378    0.33157702761957    1.68276463665182
C         2.34788470182718   -0.33991644887186    1.37666828779069
C         1.59009191931761   -1.06503762839498    2.44679082169361
H         0.62685629316186   -1.39904679098431    2.07177909325211
H         1.42619805111024   -0.40962298892663    3.30156405581432
H         2.14410642992932   -1.93681713608963    2.79443357091874
C         1.88588426205972   -0.29904292337017    0.06995313582955
H         0.96957336976971   -0.81328258034183   -0.18005990413777
C         2.56784516829772    0.39867734283181   -0.91665627535283
C         2.03920668152516    0.46148156364144   -2.31603458600449
H         1.36048200341522   -0.36392396205412   -2.51430406684530
H         2.85176309591190    0.43415419809663   -3.03841109764534
H         1.49288124911925    1.39348300575091   -2.46234497966055
C         3.73622302482152    1.06866127770667   -0.57732523938604
H         4.26870713230939    1.62122482858818   -1.33765610088368
C         4.23426250860184    1.04891336500740    0.71578662877222
C         5.48608919112284    1.78410592107371    1.08144333157928
H         5.95074818505974    2.21350740055814    0.19857975961987
H         6.20047601242803    1.11800432111896    1.56417995783370
H         5.25314396305372    2.58773968096451    1.78178032430874
C         1.66654844654903    5.23004441904293    3.57254570976283
C         0.33355800228110    4.17651114577389    1.78514841477245
C         0.29636016450374    2.75987872604056    1.20717919907963
H         1.27682360504918    2.48492802487130    0.82508335441386
H        -0.42854583753439    2.70606044562793    0.40007053112061
H         0.01873118364096    2.04712556985711    1.97981618888089
C         0.76874030106769    5.17668489318685    0.71341261325127
H         0.81323981037437    6.17662269290297    1.13633539242769
H         0.05779942656069    5.17110329716402   -0.10853240067529
H         1.75350147349570    4.91058927248030    0.33302949488057
C        -1.02678180792658    4.55777722429350    2.37047597876964
H        -1.31534017811774    3.84626169561860    3.14169584900232
H        -1.78073855523725    4.55713966657755    1.58779759067697
H        -0.97327364033104    5.54849012607019    2.81333829394984
C         3.21449826185367    5.55735706053393    5.36278691864095
C         4.59896811698065    5.56671974189849    5.61149774529489
C         5.14184622674698    6.22613749575410    6.69558424915784
C         4.34185180128002    6.91685672072238    7.58826037974276
H         4.76562803261109    7.44128659387982    8.42665272656140
C         2.97411790845964    6.89931646615570    7.37667811528534
C         2.41241655100626    6.23337231471921    6.30183421656078
F         6.47440546469614    6.20262350293582    6.89674267077103
F         5.41103657058447    4.89861577419121    4.76195589195410
F         1.07325300655099    6.17301770357232    6.19817142410463
F         2.17767260659552    7.52423932029694    8.26394299720538

