50
CSD_code = EWEKOH | q = 0 | S = 0 | Stoichiometry = C28H19AuClP | MND = 2
Au        1.55232296826278    3.42776281083427   11.23659179351883
Cl        1.88712326927181    3.06971938658055   13.44547853921741
P         1.14367634543084    3.76768290880592    9.05737511318508
C         2.56330013670388    3.80099946706395    7.95815313955629
C         0.11283166017234    2.53028889422290    8.29079320335448
C         0.06223249873170    5.19728327932221    8.83142458364464
C         3.45022660627754    4.85004676448546    8.09819433351852
C         0.48562164580499    6.47539160107930    8.55323775218459
C         4.66549803960185    4.86005200578610    7.41189609919777
C         5.03502579636189    3.75957150008920    6.68870308423594
C         4.20658666879183    2.62208053293599    6.62392077071532
C         4.67383874365460    1.42506548989539    6.04286438769629
C         3.93866762766126    0.28437929786345    6.15724758723120
C         2.63990129975582    0.29210819072832    6.70046119572490
C         2.07372454102062    1.49266535582472    7.10847170770790
C         2.91352890888302    2.64402732503669    7.21279198880014
C         1.98358287010479   -1.04772626368326    6.86433086494206
C         0.63531985603122    1.60310016033309    7.38322891382538
C        -0.28062309710318    0.83924105574540    6.65721793884954
C        -1.63762246325419    0.93317336177630    6.90181889887024
C        -2.12686777999719    1.78755357990831    7.87204699570533
C        -1.25425969142690    2.60972313353753    8.58108530185762
C        -0.35113182065220    7.56790060655864    8.81487206502837
C        -1.54378246739196    7.38130639050896    9.45789186023401
C        -2.00966523630062    6.08394296120738    9.75454417344973
C        -3.19934104408281    5.85520765279637   10.47627300854107
C        -3.57818392102079    4.58147380987483   10.78706606243759
C        -2.90486664398072    3.46163436026785   10.26304407272779
C        -1.78737422690242    3.65413319880828    9.46760023706997
C        -1.24315968054377    4.96592159802989    9.34515569368106
C        -3.42057649112775    2.10476110601337   10.63537959529363
H         3.21338859850629    5.65935933846677    8.77529928489025
H         1.46527813150692    6.65079922151809    8.13554063860126
H         5.32210247491738    5.71286327853546    7.49532515811146
H         5.99649455681719    3.72223792582253    6.19758183604421
H         5.64507363315867    1.41704526540097    5.57113685097491
H         4.33868615107291   -0.65575396267941    5.80561950929302
H         1.64200216360837   -1.44534438570028    5.90849629675950
H         1.14252214746978   -1.00816075063010    7.55072718982662
H         2.71897904442072   -1.74824722860391    7.25959038792977
H         0.06558126861458    0.20563007714291    5.85788586219006
H        -2.32550739395986    0.34064130316599    6.31691218013351
H        -3.19034232259841    1.86614339673345    8.03056097031638
H        -0.01355006462778    8.56218152342950    8.56323662475859
H        -2.14491707503677    8.22704584560523    9.75795533140839
H        -3.78181051657288    6.70284034912281   10.80546011924968
H        -4.44779418830463    4.41134757022080   11.40526590198473
H        -3.58545043241506    2.07184336271410   11.71175010046249
H        -2.71817382935057    1.31990450852222   10.36932785883771
H        -4.37731726630608    1.90255183897888   10.15316693711871

