89
CSD_code = EWEPOL | q = 0 | S = 0 | Stoichiometry = C27H48N6PS3Si3V | MND = 7
V        11.76795616968537    0.18026067105723    5.77440199773742
N        13.62806945107262    0.22090997681277    6.83648236116895
H        13.94278534811649   -0.75177480814831    6.88743910238562
H        14.24624106080329    0.71167329836097    6.17901529554876
N        13.64308770681885    0.77518841391366    8.15405868826014
N        12.07164544415789   -1.99479235220122    5.72542897366943
H        11.57418698411248   -2.33407004454017    6.55271555399514
H        11.55635713270034   -2.31169733965664    4.89618130597699
N        13.41410026894020   -2.48432002129153    5.77500244599864
N        10.94740226887288   -0.23946636123820    7.75395926851818
H        11.75211885919525   -0.14643454668430    8.37950154982488
H        10.34248740085217    0.57713829932392    7.89947713779137
N        10.29694353800952   -1.48258297473224    8.02798974527181
P        11.01157452648694    1.32552026609701    4.00197621830468
S        13.39843038031511    0.04285236719993    3.83038400793150
S        11.51334452433446    2.46230979475963    6.43008266913626
S         9.48333051836258   -0.53908747663061    5.11744418759220
Si       16.24601788179092    1.23576172229059    2.57829819700962
Si        9.66092987380691    4.70317805688956    8.01202975843915
Si        7.93282139006621   -3.08993262056848    3.56332265777463
C        16.74848483070025    0.80792260915522    4.37698646076364
H        16.16259595709995   -0.02511273781983    4.75261892211178
H        16.59737456481253    1.65655231031566    5.03915902203816
H        17.79638402142552    0.52949629717709    4.43346957571383
C        17.61867896298100    2.32536805853065    1.83031359220216
H        17.76673240713390    3.23764661582848    2.39875124955226
H        17.39500062926160    2.60299563097714    0.80562726306211
H        18.56094428770611    1.78791403147875    1.82308932216560
C        16.08373351236888   -0.35710480786306    1.54125309425244
H        16.96159243831214   -0.98767460942474    1.64491368216883
H        15.96359948395020   -0.12747735324392    0.48662619852724
H        15.21864360099488   -0.93233735928094    1.85447245242287
C        14.61478839802516    2.19725342395031    2.58337937750430
C        14.48693774639857    3.48558504800679    2.07024888888862
H        15.35637792643038    3.95591589427590    1.63478730702123
C        13.29334779265049    4.18899375217859    2.10842982305920
H        13.24499650199323    5.19005425127924    1.70412254777717
C        12.16157565177124    3.61759336619839    2.67069964167561
H        11.22368331700481    4.15545424152281    2.71942890677883
C        12.25630965945009    2.33255192013592    3.17260849688981
C        13.46786987276100    1.63324452329938    3.14061444922790
C         8.29675970071454    5.91040157400502    8.57199687892529
H         7.33031301257106    5.42317669833398    8.64774488888959
H         8.19670859313664    6.74699696880475    7.88852119292470
H         8.53565017862787    6.31631298779061    9.54920087489396
C         9.73356720990709    3.27238454847430    9.28382004567496
H         9.71251390454216    3.65281545932338   10.30054913916385
H        10.64434612532877    2.69414447156430    9.16328961725077
H         8.88690808807614    2.60116453473571    9.16576357022409
C        11.32268671221349    5.63903130306725    7.95998673873234
H        11.24031184031117    6.54789281646244    7.37125606063666
H        12.09786488700704    5.02562791087318    7.51277125898121
H        11.64952792351186    5.91952458227026    8.95669531910965
C         9.22728429496962    4.01589709552904    6.30078551851724
C         8.08632614730718    4.38791659130676    5.59353443383190
H         7.42122864358749    5.11713770768441    6.03224036258390
C         7.77049491647695    3.85073769929473    4.35590199947266
H         6.87083872214119    4.16562752080739    3.84643530324405
C         8.59847265657297    2.90477290398008    3.76990577206822
H         8.36327237040941    2.46578966666757    2.80907431729715
C         9.73996802727992    2.52251197359379    4.44933591453825
C        10.05039249825988    3.06676886249334    5.69911335886481
C         6.46114789555738   -2.30761853985831    4.48863236761593
H         5.95170963452477   -3.03595488438252    5.11222912906953
H         5.73320051177916   -1.90055704596103    3.79317060550591
H         6.79764879189741   -1.49615043700694    5.12554749335657
C         9.05743364183681   -4.03847263711351    4.79014735054555
H         8.52969234483320   -4.88313603368360    5.22228328588866
H         9.37207975872622   -3.39373716445055    5.60451140367775
H         9.94541119988255   -4.42602375656876    4.29785376616838
C         7.28051079829531   -4.34891945908857    2.28962502355687
H         8.08685254433190   -4.83007071726904    1.74564807455870
H         6.62217887097905   -3.88081906187943    1.56535642659915
H         6.71354137732302   -5.12768182307987    2.78853751666289
C         8.93237927821696   -1.75164562047313    2.66891106336087
C         9.09730513963167   -1.72628822138153    1.28467545443083
H         8.63380671475772   -2.50413871362855    0.69586172678128
C         9.83933918630766   -0.75072241132792    0.63854968627152
H         9.94281735038185   -0.77797330738726   -0.43686620789647
C        10.45686799512691    0.25769716384363    1.36423468163385
H        11.04883306683605    1.02199864378312    0.87821652323681
C        10.29635306674333    0.26358710063555    2.73679465912332
C         9.55695623787805   -0.73362846020735    3.38564678240371
H        14.59969806198002    0.88893995403895    8.49892713818104
H        13.22532634494154    1.70606022277442    8.09730359116209
H         9.88475235062928   -1.48632133219553    8.96494430772588
H        13.44011138635386   -3.50270061290016    5.67501946134582
H        13.91106933562653   -2.08847333786544    4.97482894758686
H         9.52985836991504   -1.57775281190272    7.35819577948869

