47
CSD_code = EWEPUR | q = 0 | S = 0 | Stoichiometry = C22H18N2PS3V | MND = 5
C         5.10743661587495    2.59190216549890    1.82190082315034
C         5.04785594402070    1.44588303771800    2.62719706353313
C         6.00432955136414    0.44724494941755    2.50843793868751
H         5.91800588814732   -0.45010087664229    3.10656773906090
C         7.04464858507237    0.59781149074924    1.60763363371952
H         7.78924062062559   -0.17786371819895    1.50723648560943
C         7.12593348723644    1.74585408173986    0.83226756351054
H         7.94174621397376    1.86409225781073    0.13404939522974
C         6.16541017561621    2.73561379398241    0.92952507958653
H         6.21639767875711    3.62083726821867    0.31343833306452
C         3.66584192659799    2.70917793577305    6.13041500261127
C         4.35481613108028    1.70694144897244    5.42819574120792
C         5.42178228355425    1.04340525256254    6.01621142152876
H         5.97546654219035    0.30683159272231    5.45089979549396
C         5.78696940378369    1.35036175084654    7.31626788653337
H         6.61930422754412    0.83987091180578    7.77752042260274
C         5.08592565250475    2.31676882340806    8.02359374184463
H         5.37019062171862    2.54846219864282    9.03967949424103
C         4.03581005807447    3.00046111005197    7.43913045451242
H         3.50075875401485    3.76529975261262    7.98152717647605
C         1.86958060484194   -0.27743401017344    2.87415679367938
C         2.97230930708702   -0.22574018617790    3.74168361728907
C         3.33850779327414   -1.34312416058036    4.47502922372099
H         4.15997621516805   -1.28611002179093    5.17513425984578
C         2.63678624967130   -2.52682328524757    4.30723713623468
H         2.92110360228568   -3.40399004710333    4.86936092920340
C         1.57127057675409   -2.58732472446946    3.42163360386752
H         1.03032648821762   -3.51381394071277    3.29585197895531
C         1.18015203535691   -1.46962398740487    2.70416178604413
H         0.33945606850415   -1.50960412372407    2.02756909595280
C         0.07878065457322    4.42027777928628    1.76824678129152
H        -0.18625288606611    3.52868766408497    1.22517638357579
C         0.12127229046145    6.50606086778228    2.39631070458311
H        -0.12839373501492    7.54689201823069    2.41254360971049
C         0.99654842546027    5.77780092439271    3.14860825645405
H         1.64534857764344    6.09100897760670    3.94655046601870
C        -1.42837074471403    5.96244267311676    0.51695037413363
H        -1.00319742688254    6.65289819895812   -0.21417693947651
H        -2.30159212710325    6.43113321337842    0.97419742479005
H        -1.73981443151735    5.05386359948187    0.00512537108113
N         0.95395710080271    4.48124704716364    2.74660984991613
N        -0.45587804122921    5.63515540665964    1.51978873658589
P         3.65642873684095    1.44689133399086    3.78464171918561
S         3.84124443843062    3.80679913312597    1.88537070468098
S         2.40336473951707    3.61060836046190    5.32547757750611
S         1.43287890134569    1.18616431241911    2.01643214849612
V         2.16743622454488    2.98070174955397    3.16143321447300

