95
CSD_code = EWERIH | q = 0 | S = 0 | Stoichiometry = C47H28BF15NNiOP | MND = 5
Ni       10.03242678217162   10.26579325816730    2.67009894202765
P        11.81434650055929   11.17062552835755    1.91666798470430
N        10.71413808105888   10.55163197400939    4.44578702689980
O        12.05268680137083   10.46923070197445    6.22218598065684
B        13.19430625545911   10.41230864798171    7.17979459617848
F        13.68777799599049   12.62894653879611    5.46255569347206
F        16.02252889098277   13.31984303161100    4.29854456091170
F        18.22800169690535   11.75114212948545    4.61132746267942
F        18.05462908334448    9.46983257931878    6.11532436706181
F        15.74944351909000    8.77587048768634    7.25970326475828
F        10.71331720178832   10.60041691935396    8.56652435668713
F         9.90966749649046   12.47794565192270   10.28885068596058
F        11.60948236510588   14.49974280605098   11.02064379961513
F        14.13271472898149   14.56733702323279    9.96595185991367
F        14.93268422750040   12.72035483452888    8.23190292449963
F        11.58705743975656    7.90610484402148    6.62392624210012
F        11.41295301259246    5.79777996480796    8.22300042832118
F        12.83470831443854    5.69419054713451   10.56480267172114
F        14.43697424838450    7.80591859043338   11.24680361766407
F        14.61444201990813    9.94378355876030    9.63761548061346
C        13.13415396735244   10.23826513684133    2.77679305140820
C        12.94292622484086    9.73497537470129    4.07567355936060
C        13.84080260096846    8.79238530064380    4.56507586786537
H        13.65709124408112    8.32982990784121    5.51890907239554
C        14.95760740566840    8.41741722646064    3.83816692294800
H        15.63003655573194    7.67253353824428    4.23485164248373
C        15.21708977302360    9.01963351283302    2.62066370212893
H        16.11420947968542    8.78030014730590    2.07048917246021
C        14.29529377011544    9.90322323375353    2.08646262107607
H        14.47636949376375   10.33214911434236    1.11140596127990
C        12.27393986502791   10.97648459205902    0.16264405068437
C        12.37323567570779    9.68339744237668   -0.35131081343037
H        12.24294522520588    8.83851093112226    0.31344674236884
C        12.65952742649840    9.48270303492185   -1.68690858937207
H        12.74378446687996    8.47902256691724   -2.07628477660128
C        12.83480871486301   10.57170628864296   -2.52788756371154
H        13.05474808171863   10.41573624011681   -3.57303939922191
C        12.72398507478804   11.85712368287646   -2.02658411945220
H        12.85808235627517   12.70559614435858   -2.68061766123527
C        12.44044516587049   12.06318145108313   -0.68666236799742
H        12.35544300097406   13.06812978770743   -0.29989736732036
C        12.13130336069893   12.92556798565348    2.23349049340722
C        13.40249939525804   13.39899155199501    2.52956981954292
H        14.23091450614415   12.70994870666871    2.59493557880463
C        13.59930963533471   14.75269112339042    2.73419236830606
H        14.58553278506228   15.11641764901966    2.97628042550478
C        12.53384039305043   15.63282117293687    2.63483370434554
H        12.69082207546032   16.68778581106342    2.80114609893574
C        11.26761677925115   15.16483184647385    2.31895137364165
H        10.44086259363285   15.85435547028846    2.23187742942942
C        11.06485445746354   13.81216138062303    2.11883498141498
H        10.08592114601209   13.42472645486671    1.86283325519139
C        11.86404272378048   10.25552375691494    4.96343391743590
C         9.35996118855294    8.07033657059561    2.79672397908967
H        10.38598131193293    7.88667769571514    2.46343788556988
C         8.52479363920340    8.94824502060822    2.05325824252847
C         7.16920199831364    9.05056325422901    2.42190212860205
H         6.52273589643030    9.71670211269736    1.86738291999011
C         6.66225184828555    8.27595638890079    3.44181106587308
H         5.61509380410829    8.34377969917447    3.69684628133304
C         7.48990237069515    7.41029018208497    4.15277273033769
H         7.08139189196826    6.81556779137302    4.95503965309094
C         8.83313185250482    7.31395644001527    3.83570188636171
H         9.47529549981078    6.65071929255081    4.39517012293667
C         9.16287875674980    9.78488208421209    1.04904467076284
H         8.51145176551551   10.50129934744507    0.54330714276992
H         9.81406208696434    9.26465635908814    0.34379869973595
C         9.71873210181442   11.21315956040334    5.28498504667819
H        10.23910067324297   11.83132794865442    6.02762192605404
C         8.85931932112023   10.18004278336678    6.01174607045321
H         8.25187598458113    9.62599302546177    5.29960904056049
H         8.20683412998473   10.67759325605694    6.72376434962622
H         9.49160730504662    9.48462869249268    6.55395701630981
C         8.86456557931003   12.10169376858042    4.37421466277148
H         9.39424773988248   13.02158755984327    4.13521148900082
H         7.92398869227805   12.35207764835162    4.85775019746595
H         8.63200369036917   11.55797359989801    3.43170579020565
C        14.63294594139849   10.70478134974860    6.45381664463752
C        14.76113706895756   11.84201701480376    5.66082692510325
C        15.95117161399762   12.21182510662371    5.05097691864317
C        17.08062879682757   11.41956626189666    5.21144157946657
C        16.98986384069595   10.26827563670279    5.97985263386627
C        15.78134559134081    9.93474040055075    6.58302220516701
C        13.12528680565728    9.02225045983411    8.05421840306516
C        12.31525046349772    7.93369536918877    7.75658305132854
C        12.20837732860801    6.81649182784320    8.57956651843031
C        12.92684361376643    6.75996678477936    9.76434605620211
C        13.74224765979286    7.83354673649017   10.10478793337608
C        13.82008011534231    8.93169325296726    9.25839935421316
C        12.83504036748077   11.60377130444150    8.26923915868290
C        11.57438659368721   11.58797613150207    8.85913361936411
C        11.14448902639310   12.54350997828967    9.77191368611377
C        12.00403379682650   13.56729557856393   10.14826487176105
C        13.28210201643660   13.59903318521868    9.60750493690814
C        13.67462814875193   12.62752635616807    8.69016140507161

