96
CSD_code = EWERAZ | q = 0 | S = 0 | Stoichiometry = C50H26BF15NNiOP | MND = 5
Ni        4.49810157705140    0.29652229852358    2.35279242415562
P         4.05656074607052    1.42417719202215    0.59317104258202
O         2.87818468912935    3.38358180747281    4.42943462672005
N         3.60330467998498    1.51888315759561    3.46297298295012
B         2.94755391719069    4.87292956843655    4.57898279602439
F         3.08623704885644    3.47946925547587    7.06516995072394
F         5.08623598055837    3.46828800543818    8.84101198191471
F         7.22322465441489    5.14975892664133    8.51975666982848
F         7.28073519318254    6.84344347661926    6.37252219826484
F         5.32523219541785    6.81117591931640    4.56331541200523
F         0.46347706545242    3.41209859650284    5.45347930117064
F        -1.57381616277653    4.50074346843991    6.78902029205547
F        -1.57890770528094    7.17041623332257    7.38485703416416
F         0.53927832237924    8.72088378525567    6.61544486584734
F         2.60416108617955    7.62002567429838    5.28263776619102
F         1.34322680428082    6.73912779082081    2.79913353466842
F         2.16282408063429    7.68750944917477    0.43821857998287
F         4.63805715898426    7.04377193081103   -0.53558540268066
F         6.25729421619109    5.37900110667644    0.92542385181071
F         5.35539044117441    4.26727769083073    3.17721638836964
C         2.93421601250311    2.62602711815850    3.38724855209263
C         2.21004443788947    2.95501977584141    2.13142190537275
C         2.60699624840713    2.50672786711425    0.86269761704438
C         1.85244144991243    2.87214580564184   -0.25087195048444
H         2.13302370498606    2.49927896393879   -1.22601027689034
C         0.73420571416533    3.67639563672012   -0.12983444759019
H         0.17351850416948    3.95483068824333   -1.00908610959216
C         0.33033840237566    4.10171394342829    1.12392195629605
H        -0.55084500416833    4.71331183687681    1.23797739114501
C         1.06043764318668    3.73581653580946    2.23808467813715
H         0.72958162470821    4.04856165970078    3.21209717953770
C         4.40013112547435    1.24906084459387    4.59842591471267
C         5.78776456686114    1.28776016193491    4.41468706041588
H         6.19207585777131    1.59913696851621    3.44586852358429
C         6.62634354951536    1.02139440718666    5.48128100906778
H         7.69707261568476    1.06376349104415    5.34662332480528
C         6.09232731356634    0.72239331091703    6.72455982882341
H         6.74816609184658    0.53302954917184    7.56063011070059
C         4.71864731309459    0.67982548694015    6.90107956467637
H         4.30698739155829    0.46082164669907    7.87415005950906
C         3.86562288585056    0.93408934919899    5.84283483672914
H         2.79502610662706    0.92038800212726    5.97438968671245
C         4.96584166905148   -1.69662817285784    2.88072216456363
C         3.57191659918458   -1.75545322901809    3.14554194522747
H         2.86576455928458   -1.65390439076737    2.32011557015523
C         3.11367657748968   -2.07031249257890    4.41628889782188
H         2.05140503035393   -2.11175678141278    4.60821278004380
C         4.01176579869399   -2.33614871841284    5.43464094506822
H         3.65191799710618   -2.58095918070026    6.42197625741924
C         5.38012456145199   -2.30201972828420    5.18616871624682
H         6.07357453515464   -2.52449116165069    5.98311854374751
C         5.85607302835290   -1.97649426342368    3.93596788731443
H         6.92002615971838   -1.94912799538190    3.74698645491946
C         5.39241840657095   -1.20398561987028    1.57808383441900
H         4.85929722994758   -1.62052710868753    0.71954347864839
H         6.47175112508663   -1.18746151609634    1.41592600946270
C         5.32943478809919    2.47477023605888   -0.16737044002417
C         5.04651133367338    3.45684901545267   -1.11164693022225
H         4.02383252818262    3.69873765151008   -1.36013698366716
C         6.08363094850583    4.13356491687504   -1.72768063367336
H         5.86329647194054    4.89961142302019   -2.45550768611809
C         7.39929427484913    3.84382325590095   -1.40129180231047
H         8.20214262280003    4.38012080577357   -1.88291315579516
C         7.68330692248852    2.88324218081564   -0.44486011979577
H         8.70724194559954    2.67099392986245   -0.17730289854971
C         6.65075817521168    2.19996438361286    0.17033240505206
H         6.84880420111919    1.44204885021201    0.92125462238299
C         3.46857756850147    0.40264101122857   -0.79692300027719
C         2.29098354705887   -0.31853173578878   -0.60560253786803
H         1.74632851818498   -0.19993028108583    0.32310153549899
C         1.82397820338360   -1.16191467878389   -1.59413217420310
H         0.90785509270526   -1.71396921670400   -1.44564232403321
C         2.53611559227300   -1.30220978663798   -2.77638534460527
H         2.17248296858734   -1.96215750760121   -3.54926215098757
C         3.71566495530151   -0.60144202674983   -2.96275721931616
H         4.27271806254711   -0.71546395406013   -3.88073828155961
C         4.18832873793530    0.24612116220033   -1.97470626457509
H         5.11169490061820    0.78822465820677   -2.11931434244595
C         4.15355211724241    5.08107998827673    5.69080963894113
C         4.13203638699372    4.28383681001588    6.83177538417511
C         5.14723914768113    4.28616462049962    7.78038828775767
C         6.22961987709621    5.14202348835460    7.62466180447705
C         6.25784385822541    5.99478771468238    6.52960283608838
C         5.22979565957994    5.95402568041103    5.59112290443704
C         1.61146629989393    5.48255075775603    5.29182997978187
C         0.52589566701864    4.72726710110629    5.71845288395649
C        -0.54731435836130    5.27614632641297    6.41485621580103
C        -0.55402907393614    6.63032274915889    6.71821285622493
C         0.52278570552882    7.41592173937690    6.32204074340184
C         1.57677009537845    6.83212432743597    5.63185033087832
C         3.34619501238592    5.52114651051782    3.13035233454921
C         2.56788041438816    6.38907688478866    2.37680442250014
C         2.97586333349614    6.89341590717209    1.14520723880027
C         4.22632783194044    6.56116213334694    0.64214775855105
C         5.03434516280244    5.69662670082211    1.36836674710892
C         4.56651168056189    5.16791824225614    2.56205716318102

