66
CSD_code = EWEYIO | q = 0 | S = 0 | Stoichiometry = C33H26CrNO4P | MND = 6
Cr       -3.44349270887199    5.62733599852926   12.45611152196724
P        -5.55193249510425    6.66225206206955   12.09662912524828
N        -7.42355328656591    2.04981204776896   13.44672696468146
O        -3.06685413288643    6.55494210392166   15.28291825942709
C        -3.34449455015085    6.17202164312787   14.22976131063669
O        -0.79514034277035    4.36281579016576   13.08859405994588
C        -1.83156230438726    4.79519556940890   12.82259418628616
O        -2.89042669479884    5.11634481942447    9.54668009387771
C        -3.22526457262857    5.23037581226595   10.64638729378794
O        -1.82854645786939    8.10758202659363   11.94001674683973
C        -2.48115682639949    7.16836594670131   12.10555199474014
C        -4.61087945832753    4.11982278059506   12.96189931569385
C        -5.47202725191215    3.39503550342697   13.47197797861302
C        -6.47481367967001    2.72793079373932   14.12939696748607
C        -6.45309140369559    2.76776752439465   15.58936526704155
C        -6.84578166658760    1.67812367224616   16.37152720560095
H        -7.16737697406758    0.76096236804485   15.90043361297290
C        -6.77247406243942    1.74442340170271   17.74966655454315
H        -7.07245647940523    0.89167733930728   18.34127305701572
C        -6.30964606793164    2.89199603366504   18.37275883795764
H        -6.26173701444317    2.94080315360385   19.45024942362042
C        -5.88834365354069    3.96703557425107   17.60504088495179
H        -5.50468424468013    4.85650380856908   18.08135232273840
C        -5.94862014221103    3.90440758181795   16.22848339717948
H        -5.60681043245857    4.73299418622517   15.62674502524266
C        -7.29573393168943    1.87851170506633   12.02190211584326
H        -6.24557016569626    1.93513479703602   11.74174886019414
H        -7.84350172823228    2.65230272615663   11.47287680417450
H        -7.69478607324350    0.90223266291688   11.74132211722563
C        -8.73165841386235    1.75669448416119   13.97204581169305
H        -8.84667459352172    2.17093402312150   14.97079392458348
H        -8.90554631145059    0.67713752232179   14.00860043940110
H        -9.49075860089905    2.19927293022191   13.31914482326418
C        -5.58436938085020    8.41784948942522   11.57463646455437
C        -6.33064006369544    9.42926084045221   12.16769636766572
H        -6.96722016641610    9.21353063552274   13.01478629392573
C        -6.25879440515823   10.72079406468036   11.67322944089291
H        -6.83651565298850   11.50450552394234   12.14192712282564
C        -5.45339258181966   11.01048399154171   10.58534751112820
H        -5.39854446585060   12.02075381356164   10.20784071125436
C        -4.71734942401730   10.00282658221332    9.98127048034341
H        -4.09062164194153   10.22498088884142    9.13037720540116
C        -4.78120656375511    8.71485309050057   10.47554387043445
H        -4.20530740078755    7.92047921950555   10.01434217999581
C        -6.63651817352247    6.64711740613147   13.56155466488561
C        -6.25245869081094    7.40877193774250   14.66436453249444
H        -5.38292240925918    8.05011114702929   14.58768709051649
C        -6.96923489820637    7.34336020482473   15.84378562729209
H        -6.66929658984227    7.94232515205401   16.69098211984107
C        -8.06513687968512    6.49959202002980   15.94291535411782
H        -8.62048030036473    6.44074871079320   16.86710957513015
C        -8.44039021653153    5.72604264502954   14.85807884536614
H        -9.29151819379567    5.06447854805738   14.93758283368470
C        -7.73004627146429    5.79496030382628   13.67230781828011
H        -8.02341005062677    5.18824903129412   12.82712783136251
C        -6.70432880402305    6.01694625813853   10.82544261656014
C        -6.42269080981504    4.82419280390774   10.17269699550323
H        -5.52428569233683    4.28018096691379   10.43264576300460
C        -7.28673919252572    4.33782892144761    9.20532232555429
H        -7.05937416543886    3.41155056684719    8.69763770640690
C        -8.43653925466806    5.03989271226578    8.88517178907180
H        -9.10802048628504    4.66333851354341    8.12751412748502
C        -8.72430675873682    6.22984866476168    9.53632588896478
H        -9.62085674092945    6.77883485237241    9.28745021584479
C        -7.86359314469427    6.71897584447910   10.50067537426963
H        -8.08729380599767    7.64818625695816   11.00674695148505

