89
CSD_code = EWIHOJ | q = 1 | S = 0 | Stoichiometry = C52H32AgN4(1+) | MND = 4
Ag        0.47104184247722    7.17261967758304    7.51928177363899
N         0.56221143819126    8.22837531279730    9.65094535652805
N        -0.87758911761834    7.88095102615258    5.68991440306883
N        -0.55077451776569    5.78873316542622    9.11490810224415
N         1.84824325284154    8.04175481664081    5.82929456868426
C         3.45523004332565    7.84857497732616    8.32940834683373
C         3.91537135169626    8.10919582763210    9.64548926674739
C        -1.90243648561145    4.73325215949397    5.12471608206176
C        -0.82607360511846    7.99042576672385    3.26865799217841
C        -0.18227959712437    7.96897080942535    4.53362832563549
C        -1.30364878617488    4.79352704539035    6.40912988626921
C         3.02178817463465    6.52292394852860    8.01639362462643
H         2.91512361280839    6.24912818342396    6.97485971253938
C         3.49159009185853    8.89163116222473    7.37228691081192
C        -2.23461701546562    7.94402134405516    3.25384096012739
H        -2.75396427717768    7.95901351296736    2.30703066492318
C         0.41374038588867    7.35481150642712   10.67225986383232
C        -1.09531059827493    4.74734694190597    3.96011379752760
C        -2.91609109446476    7.89074501472803    4.43941601215593
H        -3.99343965253634    7.86811870176296    4.46953899630660
C         0.12124249959531    4.71868258054923    6.49325690548801
H         0.56941263283893    4.50744479424872    7.45529545241339
C         1.05481688275403    9.41653917561028    9.90595632352798
H         1.15121532502011   10.08659737422597    9.06116664698198
C         0.31625651598374    4.77054554970919    4.07085893057074
C        -2.18728574515527    7.84790542403852    5.63552843280269
H        -2.70454521319094    7.78318885787288    6.58428270842362
C         3.27896265195693    5.83884450728483   10.33476919552903
C         1.23795949136619    8.07575825366697    4.58988766082875
C         3.80349401054233    7.11589926808724   10.64989025447148
C         2.94912128751143    5.56164096749097    8.97989103010677
H         2.69016355670534    4.54387562742740    8.72227166866910
C        -3.52606822038196    4.73613571942633    7.39009845616992
H        -4.15498530273714    4.75253480063763    8.26868764506839
C        -2.13818429360033    4.87238076055655    7.55060097415223
C         0.89137009378985    4.69822015695355    5.36902043091279
H         1.96271114988231    4.56920109483085    5.43909824479144
C        -0.18496428271522    6.08740143829280   10.41358227051480
C         4.48276862545852    9.36785203407001    9.97229552605816
C        -3.31341149391704    4.66676273580054    4.99196294721740
C         1.44653361459146    9.83675186427390   11.18408946602822
H         1.83556257311271   10.83248754518607   11.32288123058771
C         2.81318726407875    8.84417548958197    6.10605446952516
H         3.08732725389970    9.63271416465192    5.39708510006663
C        -0.05277928868879    8.07493341688410    2.09347347398516
H        -0.55645419527284    8.09207036671789    1.13937637225757
C         4.12075551025658   10.10106465798935    7.70678679241400
H         4.18548547921905   10.87750802473744    6.95808033128171
C        -1.66949579387660    5.20627885191431    8.86763336582565
H        -2.38859788444417    5.04057457481070    9.67719965179992
C         1.31122395353194    8.14475525519404    2.17154287309844
H         1.90537438585109    8.20640958407084    1.27289146878868
C        -1.69473333189963    4.73170147565907    2.67628818141662
C        -4.10186275583073    4.63008275093629    6.14839689072406
H        -5.17341975223082    4.53914629116712    6.05249357163813
C         1.95569891802408    8.15414598263319    3.41200580908557
H         3.03431970943021    8.20001142270478    3.45246436281550
C         1.09403881976048    4.79870091781624    2.91060187768586
H         2.17020056880657    4.81169597410526    2.99920320912527
C         3.16202274737559    4.87861083049264   11.34276883362332
H         2.76517761452202    3.90462279046385   11.09780075757453
C         1.33949463370220    8.95858139348384   12.22830106684572
H         1.64750057338502    9.23194606927420   13.22672364734125
C         0.80710797795737    7.67405605160481   11.99833960290523
C        -3.88912620193120    4.63493827473355    3.69200060914751
H        -4.96486350854141    4.57865184992018    3.61375322158916
C        -3.11499460114650    4.67435900267937    2.58098646563624
H        -3.56019360934633    4.65063216362981    1.59728741669361
C         4.60960957109431   10.33524473884285    8.96810355677991
H         5.07717937192450   11.27964796647901    9.20271672392024
C         0.63922478435033    6.72249484525835   13.02428673759827
H         0.94119889138273    6.98025213570277   14.02763803194997
C         4.22041709109131    7.39168725431875   11.97567242221813
C        -0.87840765371982    4.76626244560464    1.54344498818127
H        -1.33664997635951    4.75825250199858    0.56555274350586
C         4.07962779837122    6.40369257778965   12.95286569705120
H         4.39352303692203    6.61679058493305   13.96391578619827
C         3.55338901920694    5.16441273338530   12.63701180831253
H         3.45678543189023    4.41214907012291   13.40490591803930
C         0.49893353372601    4.80213482771440    1.66326947255254
H         1.11331864719329    4.82320440304358    0.77607213983081
C         4.77693706335451    8.66976895993591   12.26986702413353
H         5.10239593849396    8.86445488019783   13.28115083377472
C        -0.32802674640901    5.18488140218780   11.44986698962974
H        -0.74960059363684    4.21087013697971   11.24786113254042
C         4.90959475822239    9.61301102808780   11.30653891820721
H         5.34383187723965   10.57585846644847   11.53251892455194
C         0.09115193196362    5.50042845032514   12.74557998807044
H        -0.03579006868818    4.76926153194163   13.52903369200576

