102
CSD_code = EWINED | q = 1 | S = 0 | Stoichiometry = C48H46ClOP4PdS(1+) | MND = 4
Pd        4.90166121995116    1.62758290150972    4.21259962064534
Cl        3.05989049081258   -3.71268875004993    0.34750661760206
S         6.06014367096280   -0.34106055788151    4.65159233688491
P         6.66280926739440    2.94218104099868    4.73596372205920
P         3.65843603631558    3.56423464824567    4.28150508029327
P         3.23828935274554    6.36483656726910    0.93920346409668
P         2.86633422592161    0.61677115118705    4.34809729037174
O         2.92445930158223    7.43976240758606    1.88610754337663
C         5.31747122393473   -1.30677508806924    3.40244333480681
C         5.17070566278155   -2.68235834312980    3.56443183358009
C         4.49729052536429   -3.42385828921549    2.61636521816533
C         3.96441490891007   -2.79486904184192    1.49900469118866
C         4.15161049418390   -1.43665408719258    1.29445195428494
C         4.83851778069768   -0.69830941047197    2.24011248623340
C         8.09042045090948    2.36918747391530    5.67701568501489
C         7.81224989904731    1.53756481720574    6.76050559751560
C         8.84644877464388    1.05718414663636    7.53838011510653
C        10.15535323027974    1.39886761038506    7.23062495577911
C        10.43116929633115    2.21181264291925    6.14314631988951
C         9.40158504846782    2.69791488840447    5.35613713908195
C         7.23268895745003    3.88143308980802    3.30217507338498
C         7.00711626987258    3.27850159357119    2.06587338658955
C         7.40038593453877    3.91267580699383    0.90267943141544
C         7.99793805662761    5.16215475472358    0.97129667006123
C         8.21337596595410    5.76913770250233    2.19884110691804
C         7.84146784817831    5.13031436882080    3.36893341154979
C         5.87325411951377    4.16276478429424    5.88470899520575
C         4.66283695631683    4.80861357894177    5.21760582391101
C         2.90984621913717    4.62921731152656    2.98953484636554
C         3.88686239309168    4.88236037706339    1.85144992873412
C         1.78213863623067    5.73466818791607    0.04616774534088
C         1.86938847473729    5.00276610472260   -1.13069719333006
C         0.71449731250867    4.54550506648972   -1.74038362943625
C        -0.52359864369150    4.81307125077105   -1.17694687621635
C        -0.61167131136030    5.54952153621637   -0.00664834994772
C         0.54054401082399    6.01352671733197    0.60196005943863
C         4.51337290309737    6.78977920999671   -0.28058549144282
C         5.24464955022174    5.84727453420674   -0.99224711918987
C         6.18394329404222    6.26598968478637   -1.91703938981855
C         6.39549759623731    7.61901971731635   -2.13235034367004
C         5.66990697739338    8.55946801285225   -1.41923691567353
C         4.72802685545864    8.14470192635830   -0.49482179308584
C         2.20912743124855    3.12538873592127    5.36067624776439
C         2.24566767722846    1.64888257679241    5.76597285799358
C         2.53023169286882   -1.08460626094936    4.84305768943776
C         3.09552973244743   -1.53655264438845    6.03448241070746
C         2.92563698034670   -2.85229904036313    6.41847334111586
C         2.20660961894183   -3.72155277453484    5.61215406206717
C         1.66424955586565   -3.27815628330548    4.41696800218046
C         1.83044617036659   -1.96318536708097    4.02245427402581
C         1.69006854751502    1.03472231325546    3.03526929111618
C         0.32087540129133    0.83017487909665    3.18073858575990
C        -0.53984810042456    1.21589357509693    2.16917687104927
C        -0.04270137620696    1.79942011086709    1.01330169265086
C         1.31994793796987    1.99812790924618    0.86232009687782
C         2.18412563663577    1.61848193620831    1.87370100446955
H         5.57149767063225   -3.15674553781376    4.44643736451702
H         4.36977922825785   -4.48625374572706    2.74861025665750
H         3.76405327749064   -0.96608964138486    0.40413796679773
H         5.06554814242301    0.36209718142272    2.05816087312730
H         6.78226337753215    1.25932408038660    6.96622988587786
H         8.63839088785741    0.41116478072416    8.37745495278925
H        10.96470027095505    1.02001916480264    7.83558186168510
H        11.45273678118567    2.46411866319176    5.90276155553577
H         9.61248476388441    3.32168567069612    4.49895498810771
H         6.52500781305126    2.29615403266380    2.04213639160759
H         7.24763245118028    3.43826312594606   -0.05474377054377
H         8.29660341738218    5.66637392414418    0.06549010900265
H         8.67787576813454    6.74222754204068    2.24371634722722
H         8.02237995215824    5.59806029381483    4.32654595189120
H         6.60404169020366    4.91146224040067    6.20527376759806
H         5.56953640661050    3.58676940593783    6.76972001620938
H         4.02644837864349    5.31832298350222    5.94815941556117
H         4.99458337771440    5.55340813084542    4.48575317828086
H         2.64314258309718    5.58477183990134    3.45903886113258
H         1.99739903898773    4.16133287786004    2.60909949871527
H         4.87747687331697    5.15845256080010    2.22803046631336
H         3.98854402310926    4.00682351537065    1.21157118164229
H         2.83312147816815    4.80829943150171   -1.57773457495892
H         0.77858952575302    3.98469665251802   -2.66125449113086
H        -1.42164257339284    4.45926029742476   -1.66092624514550
H        -1.57691997003101    5.77008882241298    0.42378205032617
H         0.49555901611493    6.61310947419265    1.49979333179091
H         5.08772205640532    4.79243563960503   -0.81993040787974
H         6.75131430465704    5.53611082223444   -2.47613816764655
H         7.12807315228981    7.93912083787311   -2.85781364186017
H         5.83615939655195    9.61270046316864   -1.58646689275277
H         4.15132242491628    8.85683041440053    0.07763137303310
H         1.30437371138805    3.32876860160685    4.77852717011080
H         2.19591456566522    3.77108088881308    6.24390306912842
H         2.95817728416886    1.49887076772414    6.59056916030454
H         1.26104642616553    1.30474478185921    6.09701638370675
H         3.68266524997279   -0.85881034995983    6.64240988218739
H         3.35985946645504   -3.20427098211514    7.34191982710984
H         2.07795268492883   -4.75006968408488    5.91247959469730
H         1.11717276526981   -3.95978252326968    3.78394105249044
H         1.42568819329080   -1.62120782857677    3.08077106250253
H        -0.06329136963571    0.36904457196128    4.08014749119742
H        -1.60203209685464    1.06017704494065    2.28074019309979
H        -0.71743132747289    2.10044368569467    0.22707579282404
H         1.69959319043639    2.45289217588336   -0.04030596979819
H         3.25839012727790    1.77099119317878    1.77633102664039

