74
CSD_code = EWIROS | q = 0 | S = 0 | Stoichiometry = C20H48P4SW | MND = 8
W         6.87827560966266    3.07829991512516    2.68237361680021
H         6.31249433400796    1.55495827724139    2.45190280083520
H         6.77111077704529    4.30189777153537    1.55956627013659
H         6.11289982830688    4.35774949132655    3.39631671136250
P         8.15435518837861    2.31162307308576    0.68851661785433
P         8.72186701918470    4.57370108712082    3.35256044952601
P         4.58968564824589    3.02604391922775    1.84557338620834
P         6.33926650023756    2.42799046419333    5.00178741219659
S         8.71892850269425    1.35828816672077    3.55662540876638
C         8.54865147583266   -0.38715913068647    3.42569301464999
C         9.63421814566500   -1.18514866990109    3.83598991534712
C         9.51230887806854   -2.56100772119201    3.74931707640427
H        10.33267854207650   -3.19090534013946    4.05698517509213
C         8.35597884045593   -3.16158210912309    3.27508785281947
H         8.29086821173892   -4.23864344039853    3.21900420932792
C         7.29170265585651   -2.37383155874477    2.87849505665187
H         6.38158089340879   -2.82568476274935    2.50869478346233
C         7.39113667348853   -0.99830214862747    2.95536258597983
H         6.56132066542127   -0.37669842066253    2.64622907382761
C        10.87423518690213   -0.50758794170424    4.35283358098194
H        10.58027272779860    0.13163295587902    5.19135394144955
H        11.23787353219231    0.16959407683088    3.57318957412832
C        12.00512817196704   -1.42736751698523    4.79040398693844
H        12.84318383000884   -0.83124042923557    5.14679989817105
H        12.35352255262066   -2.03955304062907    3.96123288086682
H        11.68522070935476   -2.07989504508303    5.59996128814749
C         5.72959791520185    0.72930158965460    5.35418114201992
H         6.53458576056576    0.01997172315559    5.16705616430463
H         4.89656305555533    0.49233582301891    4.69552042624123
H         5.41239209716269    0.65236514705852    6.39482977558828
C         7.56590265059555    2.52138726450882    6.37974725316731
H         7.07860996792058    2.26720703780881    7.32127962663788
H         7.97996032313518    3.52550492531645    6.44685023398289
H         8.37338974033186    1.81863159684113    6.18305484019624
C         5.00220851161488    3.40752305294686    5.80717489391639
H         4.11497347918858    3.39838372711761    5.17735778208450
H         5.34068186948503    4.43847034219996    5.89983024473916
H         4.75778486073464    3.01095188090396    6.79313263157921
C         7.81719923507269    0.63055582992827    0.02393514859146
H         6.74526067598430    0.49944624655135   -0.11335108853040
H         8.16811128830775   -0.11058603787852    0.74101482334296
H         8.33165807657519    0.48957166674693   -0.92727866404547
C         7.94551380523101    3.28671908780126   -0.85831838336857
H         8.57279783622350    2.88921664730372   -1.65662811029573
H         8.21064395470723    4.32398016333800   -0.66278129067898
H         6.90286380471320    3.25050999305157   -1.16360783086524
C         9.99900646258560    2.19282501940867    0.66831395919278
H        10.33441765094895    1.86864049797189   -0.31695108450359
H        10.31410211574715    1.46971674408933    1.41844118735418
H        10.44391790544802    3.15775685078294    0.90328186441729
C         3.36957059791924    1.83556797419026    2.53767172738485
H         2.38826621071876    1.98290736326746    2.08650154457688
H         3.30049423657007    1.96827504669382    3.61518877214703
H         3.72232621554860    0.82677330211247    2.32879098374394
C         4.31112697090124    2.66843664563626    0.05908532617022
H         4.79739288699012    1.72871870387141   -0.19492472585308
H         4.75930909536640    3.47233148971851   -0.52237916618119
H         3.24634947162034    2.60336306468199   -0.16559758796540
C         3.63576605543764    4.59034243172483    1.96632604841420
H         2.66303775443279    4.49947565975361    1.48319019790901
H         4.22199849443087    5.37311943410616    1.48729323269555
H         3.50960845906742    4.84679607765085    3.01679776671633
C         8.22109676260647    5.88066857828606    4.54852298472044
H         7.87838066189822    5.42911653561864    5.47686469897174
H         7.39192995434223    6.43405903670205    4.10945371067532
H         9.05177641584702    6.55716619030632    4.75407466168733
C        10.32638076972649    4.06718753309328    4.08702177380592
H        10.94148537091940    4.94394381135655    4.28928675301700
H        10.84075795593671    3.39823433673466    3.40040653161646
H        10.13855872139829    3.51990811604949    5.00833177774834
C         9.32420483595194    5.72472606016854    2.04246047175835
H         8.46135158959848    6.26284848509166    1.65136484114298
H         9.78189116618793    5.16827411655436    1.22747470862590
H        10.04633120292582    6.43270126457800    2.45105085346067

