68
CSD_code = EWIREI | q = 0 | S = 0 | Stoichiometry = C20H42P4SW | MND = 8
W        -0.85082210169592   11.23464592336780    5.03156864426264
S        -0.56400914043478   13.19384135125810    3.39949029162025
P        -0.80530758684800   12.82271399829531    6.86953410871145
P        -1.02396855195097    9.64565636180906    3.18609586575077
P        -0.54709929075223    9.37846343606859    6.63918858975365
P        -3.13000886695693   12.05191585132631    4.35694793346180
C         1.29413961862072   11.82294446624656    5.37948226315981
H         1.57095307223238   12.85791113364431    5.17757363883526
H         1.75725263175279   11.42246291190567    6.27785750036375
C         1.26541567675256   10.94351749375281    4.25873267401565
H         1.70095292107649    9.95664612599750    4.42618285392600
C         1.53024052909122   11.50384767943115    2.92597399913440
C         2.55365834246242   11.01128035514800    2.12359595618942
H         3.14352249598774   10.17409754488830    2.47723905495353
C         2.84253040094219   11.58425542410719    0.89642973798516
H         3.64060025836018   11.18244710920183    0.28824449064089
C         2.11525419596543   12.68021192169799    0.46024240302659
H         2.34176132904748   13.13758264056189   -0.49243564985739
C         1.09103223098300   13.18466024024550    1.23886459313549
H         0.50806835325939   14.03106960050054    0.90622046569393
C         0.78017110982599   12.59466132359514    2.45888818037856
C        -0.62048687109552   14.59803588343959    6.42928784592474
H        -1.49624790447717   14.96070608456037    5.90185027747397
H         0.23530178605586   14.70119798028707    5.76488156841240
H        -0.45969633965770   15.18967424168329    7.33167315029390
C        -2.24708225453448   12.95393604089349    8.02554536825897
H        -2.21135576839310   13.89551200487588    8.57344874159672
H        -2.21800127734899   12.12913614548964    8.73599575665061
H        -3.18027803518270   12.89211183101241    7.47031408181197
C         0.53182173324462   12.81854737328292    8.14554405947484
H         1.40723182290179   13.32109560800315    7.73913758158605
H         0.81348550970546   11.80922059619876    8.43142660934981
H         0.18704992069252   13.36168653270600    9.02603174417237
C         0.22552302759214    8.31329781608499    2.92537703971190
H        -0.18098892136525    7.57439690062972    2.23377111454245
H         0.48899768459137    7.82914489032254    3.86209960914530
H         1.12356799998442    8.74518038928285    2.49021601965037
C        -2.52293170976400    8.55944384652270    3.12292921540178
H        -3.42652930353430    9.14330671476520    3.28219990468641
H        -2.45334829483605    7.81491813518202    3.91413440091230
H        -2.58520704546025    8.04530778439718    2.16366017278246
C        -1.01055732210362   10.25318985877736    1.43821595031469
H        -1.60443324694476    9.59943900686651    0.79947373981667
H         0.01710683606464   10.26602505112842    1.07926080434481
H        -1.39112435177339   11.26779662099828    1.37855285437733
C        -2.20050545266752    9.91858134825046    6.24317693043008
H        -2.70653828855461   10.32097394087657    7.12421723908002
H        -2.79652749040256    9.11774114261360    5.80120825074111
C        -0.46516996598660    9.38146393191777    8.49418344791121
H        -0.73301227919498   10.36637005168654    8.86716266048481
H         0.54323000268454    9.13380963839024    8.82553180592822
H        -1.16354424910134    8.64442026767062    8.89148738141479
C        -0.55076553589841    7.53335221778977    6.42860425124416
H        -1.25023991538540    7.08600956709531    7.13539317581817
H         0.44812642104724    7.13881143475091    6.61450549761154
H        -0.85159981676838    7.27662295964123    5.41664311702083
C        -4.66602774381294   11.33271536980190    5.09356934940569
H        -5.54014396725446   11.85180886280117    4.70129574785022
H        -4.64104438703905   11.43896857780425    6.17560239875077
H        -4.74054161058797   10.27415968143120    4.85635387922559
C        -3.63970192758998   12.01648436837236    2.58961401943983
H        -4.66711502276061   12.37203266662494    2.50710798947364
H        -3.56853456162532   11.01546364902834    2.17508513778712
H        -2.98183424609568   12.68680939814191    2.03992252927366
C        -3.54064785057385   13.82485316724971    4.62694637698765
H        -2.79825515673353   14.42897742351016    4.10986242978593
H        -3.53653168388313   14.06542671353752    5.68654647047202
H        -4.52863057390122   14.03320339056699    4.21533470803603

