54
CSD_code = EWITOU | q = 0 | S = 0 | Stoichiometry = C26H22ClNO2PtS | MND = 4
Pt        1.33473694852054    2.77284825909840    4.25027163484682
Cl        0.91475669216379    4.37569728317762    5.93297199486346
S        -0.52103248789117    1.81615699539258    5.11123019995197
O         0.96282310054953   -1.62167888736623    1.02181004483136
O        -1.02915466344802    0.54896811173986    4.59642674661212
N         3.01206844581105    3.61271853626028    3.55874395408712
C         3.70434343769300    4.53566538182961    4.22631379976150
H         3.23529512596504    4.94918393273693    5.11003896845413
C         4.95428466587610    4.95979428585701    3.82300938030467
H         5.47305133225561    5.72095637131163    4.38190490078623
C         5.53102668937072    4.35996132986654    2.70889838648778
H         6.52717892540455    4.63024303995387    2.39353056576910
C         4.81551634072696    3.41007622062342    2.01385663495355
H         5.24881359380975    2.91089216084968    1.16356920828322
C         3.52198922724097    3.06924753079838    2.42401301869521
C         2.68249485216369    2.05223953620603    1.82455253544670
C         1.69636972638202    1.56191550123185    2.69389264091570
C         1.04287386655159    0.37265826949671    2.38908111164154
H         0.27392919929389    0.01614657793586    3.05456681801365
C         1.42501428232696   -0.37726254042385    1.29211623759933
C         2.34191422527864    0.16133633926134    0.34602984190379
C         2.74778363760021   -0.59725467425235   -0.77928474998604
H         2.35121916036034   -1.59374400679133   -0.88918723048694
C         3.65297026648509   -0.09513382955782   -1.65723204776776
H         4.03606273296993   -0.69976486743289   -2.46625672547360
C         4.04886391745037    1.26298736334361   -1.58252749271386
C         4.92809569583348    1.80868900304243   -2.55534323064624
H         5.34985783669050    1.13979172860867   -3.29186995416883
C         5.24736109217538    3.12557417718095   -2.54958157522520
H         5.95544634143917    3.53013370399035   -3.25853365315256
C         4.58958192690374    4.01896465217456   -1.66285886470112
C         4.78083791730062    5.40776573592522   -1.76587502054894
H         5.49911045623377    5.77816197057489   -2.48364820740107
C         4.05231221030698    6.27761233998298   -0.99895340144109
H         4.20460320489235    7.34340318789523   -1.08397039599110
C         3.06903927577364    5.78073777581807   -0.13904357370074
H         2.44124144068045    6.46762181369836    0.40893047578970
C         2.88862785589875    4.42940410829623    0.00485842204063
H         2.09349393927134    4.06884335716151    0.63871086680463
C         3.68386765310546    3.50700776287223   -0.70053829851054
C         3.54926162160891    2.08239057930766   -0.55384223545915
C         2.86934929326854    1.45936897049475    0.54411212030757
C         0.04752698467323   -2.20832539314118    1.91901175837589
H        -0.16578708641982   -3.19687730489607    1.51480541041358
H        -0.87895047596486   -1.63129676380500    1.98317190297496
H         0.47701646193835   -2.30561262299688    2.92004810838748
C        -0.41362071993512    1.59674236907255    6.91350554779204
H         0.38494191937254    0.88852447394119    7.11080909401662
H        -1.36053926590851    1.19711491628638    7.25760178799615
H        -0.18970053147317    2.55534109297183    7.36600408309781
C        -1.92181735252605    2.97451907131118    5.05081449010940
H        -2.12091886201483    3.19391042950800    4.00618004113716
H        -1.64280033025291    3.87738453835273    5.58111930422987
H        -2.78123174378289    2.49175010522583    5.50163461969353

