52
CSD_code = EWIVIQ | q = 0 | S = 0 | Stoichiometry = C21H24Cl2FeN4 | MND = 6
Fe        3.85534022186145    2.10027600669873    9.33337814763730
Cl        3.27699532496151    1.39020900424975   11.33463660994425
Cl        2.54853996869975    3.86390941589090    9.45015275582150
N         2.44775360778173    1.13552540137702    8.47995878422422
C         1.69821610504962    0.16855849408140    9.01690802549182
H         1.93251287926771   -0.07732685859112   10.04163784276875
C         0.67042583148594   -0.45593993435238    8.33822930655369
H         0.09478471856998   -1.22280312781525    8.83102902282815
C         0.39197163530661   -0.07708869733618    7.03355177799185
H        -0.40598844346855   -0.53936266062254    6.47380117085731
C         1.16956899218396    0.92322694413507    6.46766985416375
H         0.99294261702508    1.26156321078036    5.45795742699686
C         2.17503761867860    1.50612761805142    7.21605350835486
N         5.33155901805449    2.97942069216448   10.19171849650914
C         5.43672064757769    4.27647794260789   10.48782568279736
H         4.61219715359298    4.89034346108583   10.15848893695675
C         6.49748771692581    4.80802612184630   11.19491644823621
H         6.51955102521500    5.86391597363323   11.41080475457720
C         7.51395191458104    3.96688216647103   11.62145668433540
H         8.35959953470666    4.34505856137112   12.17442505796063
C         7.40422354672100    2.61457684132383   11.33044422782578
H         8.15644448670743    1.91276920258717   11.65747977618534
C         6.30271575496897    2.15798522478820   10.63106756053983
C         6.06996751010252    0.70225148129931   10.34636639532708
H         7.01328114170584    0.14756952696680   10.25618522665912
H         5.48072696148941    0.30051009719706   11.17658929170404
N         5.24547259501296    0.61269944088182    9.14435447633726
H         4.79642139889109   -0.29711666970872    9.10172342945440
C         6.01666913138781    0.86718118787472    7.92941406579234
H         6.55193503156398   -0.02665808991456    7.58298912067281
H         6.75624289574059    1.63652654348614    8.16275554853863
C         5.07627290294499    1.37802212689104    6.84718328579686
H         5.62409454505990    1.61192775003013    5.92640886429452
H         4.35183309825032    0.59176254622792    6.62040021746822
N         4.33960398221999    2.54272735180702    7.34430750443908
C         3.03067776820296    2.61949802755077    6.69431746497648
H         3.10627108516396    2.59396296790788    5.59972022118354
H         2.56852930382995    3.55816483412715    7.01399617050018
C         5.08195854178199    3.80381803676712    7.21093463360928
H         6.02232476593846    3.69926157430824    7.75528081111365
H         4.47587453135032    4.55821168723739    7.71729195064453
C         5.36392968827738    4.22018526487512    5.79065040106705
C         6.55305220746223    3.85648844277045    5.16785696137402
H         7.30581137922278    3.31121786896106    5.72191973037875
C         6.79848992460509    4.20608083722703    3.85096580105890
H         7.72726623363415    3.91570516152300    3.38199805196476
C         5.85816779094083    4.93066170236271    3.13965553760854
H         6.04827308282181    5.20340331525814    2.11241517098355
C         4.68005195091277    5.31735037297063    3.75666967882820
H         3.95075360769668    5.89844347539335    3.21210995477002
C         4.43592604952887    4.96644788940662    5.07236182616515
H         3.52366901780344    5.28606424388873    5.55338634773093

