56
CSD_code = EWIVAI | q = 0 | S = 0 | Stoichiometry = C22H26Cl2FeN4O | MND = 6
Fe        3.34178155562935    1.02838761135326    8.83640611215596
Cl        2.06226918813135    2.76593140157919    8.41750914028691
Cl        5.10012368546232    1.93918536570479    7.87506949930924
N         2.98331260924882    0.19511843250425    7.14670442447605
C         2.07214933217982    0.56275745550510    6.24341634297552
H         1.44689305725531    1.39288875565761    6.53487434102147
C         1.94688273952715   -0.03857507406806    5.00645274083621
H         1.19620386291764    0.31114226246229    4.31636021439505
C         2.79874682399584   -1.08044256725116    4.67262811160365
H         2.73070994203585   -1.57577256909764    3.71668611410355
C         3.75792829775206   -1.45923463014328    5.60115390005459
H         4.46006950756297   -2.24994799819107    5.38422213354446
C         3.82899743705985   -0.79694981914956    6.81226755668476
N         3.76516716011311    1.77881659245860   10.53842651183601
C         4.92088973798767    2.34223692513923   10.90143891050108
H         5.68421576020652    2.35504947709784   10.13817044491802
C         5.12912389035834    2.90632558058487   12.14459997657369
H         6.08208453616595    3.35558673353701   12.37338760241793
C         4.10108689189833    2.89186872437914   13.07524031743723
H         4.22507624626750    3.32813940649912   14.05404571089283
C         2.90003626081663    2.30229561924535   12.70742924576862
H         2.06440478429814    2.26801403786603   13.38978888408234
C         2.76734359472696    1.76607357789965   11.44024064054043
C         1.49261007264065    1.14944131821803   10.95190117449653
H         0.89292364980647    0.74823340750546   11.77864818024301
H         0.93323365855293    1.93317170055707   10.43266744551542
N         1.82209944305901    0.12749049083894    9.95755432909701
C         2.44421650497131   -1.02485894199529   10.61427950822253
H         1.68966223103510   -1.72748024014479   10.98809474896640
H         3.02018969684536   -0.65807441826694   11.46752848525485
C         3.39966128301925   -1.70993169383815    9.64777394597497
H         2.83911587129106   -2.09466185757385    8.79280533541428
H         3.90011921419079   -2.55614183248029   10.13669451544125
N         4.35108233465494   -0.72186570951093    9.14403082880398
H         5.11241586590540   -0.58656487072630    9.80223303957358
C         4.88643843634455   -1.09169849775214    7.83660649883376
H         5.21663602978980   -2.13801993846523    7.79375290069239
H         5.73093241215270   -0.42682660803110    7.63040126011063
C         0.64995476576560   -0.23025237034007    9.14567268471820
H         0.97339166048138   -0.94643133077386    8.38819555944921
H         0.34931307258435    0.68925202203862    8.63934465205618
C        -0.50302775037091   -0.80616269156218    9.92445831849910
C        -1.45084803145842    0.02249830630682   10.52126073328508
H        -1.38333528262746    1.09143702805206   10.38828040269821
C        -2.48479954234022   -0.50405174283142   11.26279241206517
H        -3.22145890569870    0.13387567153674   11.72435666746190
C        -2.61008740395125   -1.88553900035803   11.42759660721814
O        -3.66256346833327   -2.30115181599575   12.18135806212638
C        -3.86491966585681   -3.68223852057597   12.35606053904542
H        -4.75732294644085   -3.77346704669767   12.97292603974165
H        -3.02049419724585   -4.15117155293024   12.87200266397300
H        -4.03379255765237   -4.18803179541520   11.39992643589711
C        -1.68227078828476   -2.72224299175461   10.81886716205839
H        -1.75593678091263   -3.79480936289053   10.90704309470851
C        -0.64599579432384   -2.17793717195421   10.07728112077777
H         0.05186001080784   -2.84908324375115    9.59428577116847

