25
CSD_code = EWIWUE | q = 0 | S = 0 | Stoichiometry = C13H8AuI2N | MND = 4
Au        9.77363331660506    1.75807214194432    5.69812382284959
I        11.80468455780474    1.09886831449789    7.23543992082618
I        11.27051030954060    3.34261055782736    4.33142700726679
C         7.00363239080123    1.45154296139572    5.08217626706091
C         8.63009793610416   -0.28235777966277    7.75438691606208
H         9.63488173764298   -0.32037257808995    8.14946610689180
C         7.92141605337578    3.00530294525338    3.52240754222744
H         8.73246477151383    3.58076196890627    3.10635611022710
N         8.41398184081058    0.50767692974589    6.71944714251798
C         7.17647216883980    0.58628742320437    6.19012301752065
C         8.10973292460784    2.17244047426654    4.59769774755079
C         5.72540147201090    1.57064903966201    4.49094910607673
C         6.34558207647716   -0.98563018499418    7.81268886185450
H         5.54155473709831   -1.56557513025674    8.24098034116838
C         6.65900167677420    3.13448260057453    2.92895035593430
H         6.55291579766824    3.80248442745017    2.08772508511412
C         7.61905115850018   -1.04516806086644    8.33141680611778
H         7.85448852887347   -1.66938057545301    9.17747604018868
C         5.57641973745394    2.43524897982175    3.39813027617353
H         4.60663877389967    2.54239335660907    2.93563916451268
C         4.64913070503813    0.80929716234530    5.03122618836621
H         3.67885088483121    0.90881159408501    4.56723128450840
C         4.82077590147575   -0.01697700257779    6.09165856901522
H         3.99682156428505   -0.58863489437957    6.49116617867838
C         6.09475897796730   -0.15633467130915    6.71151014128969

