78
CSD_code = EWOJEF | q = 1 | S = 0 | Stoichiometry = C40H34N2PRu(1+) | MND = 8
Ru        4.21295631785301    5.18801429632216    6.56114822615356
P         4.02484300544475    4.73926726990931    8.79683285548755
N         4.33873932163731    7.17825899121574    6.76490744065355
N         6.20106529859956    5.42455797138515    6.65776803798982
C         3.34892726804273    8.05121062887818    6.93752495132729
H         2.43157146139493    7.66356092077047    7.36223141832922
C         3.47266932461636    9.38868795723097    6.61214710175487
H         2.63888802675866   10.05496818277235    6.76026510233800
C         4.67604660163721    9.85404159607564    6.08621652498989
H         4.78898183370049   10.88976404877988    5.80895256654194
C         5.72250710667182    8.96742322399385    5.94055947252288
H         6.67844803629924    9.28043562206516    5.55238409407255
C         5.53157760842025    7.62874831647596    6.29526130923627
C         6.55395253724710    6.62745841403500    6.30251453831529
H         7.58762582785002    6.89053637777597    6.10482203437717
C         7.18785570334388    4.49301708968721    6.98187265500149
C         7.06951424105839    3.16230655084804    6.58517700887206
H         6.23902474525989    2.87165222975403    5.96139408753526
C         8.02947159962956    2.23714077568709    6.94382316204904
H         7.92664055060587    1.21322451740560    6.61606127127265
C         9.12524031170792    2.60176631265830    7.71838087210636
C         9.24283087694211    3.93452462918917    8.10555552316750
H        10.08629860555777    4.24008715309782    8.70611718680573
C         8.30209320010104    4.87137088377651    7.73701578887905
H         8.39723017376978    5.89397163083532    8.07021139680625
C        10.16248849076969    1.60408276337257    8.11560674727113
H        11.08412951400316    1.78640263859884    7.56331778137063
H         9.83406619176747    0.58981019101692    7.90707521189028
H        10.39299308540381    1.69184343697387    9.17531490273970
C         4.24368943221136    4.36160906712607    4.38859268850336
C         5.32684909523941    4.39969558227468    3.49122771072346
H         5.99692537615427    3.55542462248811    3.40854898969475
C         5.49610888252287    5.51221345917636    2.70451896646912
H         6.31761665519930    5.55113468713957    2.00569486528609
C         4.61015186586865    6.60060223009907    2.76934611647453
H         4.77544094041266    7.44790360300536    2.12163269504794
C         3.53252816182106    6.59425767704397    3.62014746894750
H         2.83319850252411    7.41915521863445    3.64238315408974
C         3.33287176579502    5.47636421781570    4.45013234066994
C         2.31104564652188    5.15534317729421    5.41668807742652
H         1.38491021440333    5.70232441472775    5.53468301697568
C         2.55913226068276    3.84068393972214    5.87741197865028
H         1.88442925679391    3.24218607917840    6.48005613548558
C         3.78761354500816    3.36995256577131    5.33133524257626
H         4.09818277955514    2.33396217340154    5.35063353160831
C         2.74932954930701    5.70383420115052    9.66700354761185
C         1.51756375379931    5.84178195771493    9.02875263330848
H         1.37639712378533    5.37886533456944    8.05952428833354
C         0.49050246207648    6.54082629640295    9.63419715009226
H        -0.46374134898147    6.63994857330422    9.13852145329872
C         0.68812653203885    7.11209586217329   10.88223840253644
H        -0.11097903779335    7.66092405360931   11.35613437550065
C         1.90799744314943    6.97222408665421   11.52337661249522
H         2.05753971298504    7.40917024358608   12.49895141205098
C         2.93889602525118    6.26865202620325   10.92360862634349
H         3.88452191141305    6.15386874988091   11.43296655640277
C         3.58562842395482    3.01984474748422    9.18299879686519
C         2.48505620461926    2.67343610260231    9.95920127125071
H         1.85349815872233    3.44088184680358   10.38218293327221
C         2.20229357829045    1.33768364146554   10.19102852933698
H         1.34734093089677    1.07037859859885   10.79326562075290
C         3.00907245513311    0.34767571204798    9.65548335626246
H         2.78149177412357   -0.69116238808109    9.83861945656550
C         4.10966821998780    0.69059401034176    8.88408417704049
H         4.74139331419092   -0.08102097537556    8.47017134607446
C         4.39520654153854    2.02067637425227    8.64394231038974
H         5.25149525661986    2.30624661346294    8.04684484515683
C         5.52725978136669    5.07444418548172    9.76569727020567
C         6.22453288319246    4.11168431810485   10.48365424674142
H         5.86625681266213    3.09336665136273   10.51509313694460
C         7.37600055086580    4.46540519750816   11.16756969827603
H         7.91503389239573    3.71640085354863   11.72735264040710
C         7.83097764304713    5.77246226873270   11.14389627974724
H         8.72483309903594    6.04362106322662   11.68440027576898
C         7.13652421922077    6.73748600012612   10.42827781513884
H         7.48797095297939    7.75872784461452   10.41405833472063
C         5.99401340025954    6.38917861255559    9.73497148136704
H         5.43842653304911    7.13335000039217    9.17293887125679

