91
CSD_code = EWOJAB | q = 1 | S = 0 | Stoichiometry = C47H40NP2Ru(1+) | MND = 8
C        -1.71260673585470    6.46153158786220    9.63690092379698
H        -2.78324271825520    6.32239412818652    9.56715522000747
Ru       -0.09950980034887    5.83475033876383    8.28784870129344
C         0.32809650720684    7.54593169821984    9.66750858070481
H         1.04263992060304    8.35960776891019    9.66325771561367
C        -1.01585943893115    7.63251139935568    9.23730796933767
H        -1.46311173989773    8.48041738600676    8.73146694836588
C         0.42873029275722    6.39243386016895   10.53648648434158
C        -0.83994130871975    5.71645754580704   10.50657422253313
C        -1.04495048499824    4.58046068772307   11.30842440304449
H        -2.00270279933202    4.07870796691815   11.30311644994396
C        -0.02655655214076    4.16021161548041   12.12935435090675
H        -0.17292964793222    3.29967271366244   12.76462714420077
C         1.19486199009297    4.85083346391795   12.19372746015980
H         1.95146992608326    4.51055835647277   12.88410179058916
C         1.43248233157078    5.96053864960215   11.41861788163461
H         2.35549562711088    6.51464467349837   11.50468979708122
P         2.07955575547889    5.23633755868817    7.67140474077250
C         2.26666472398747    3.43264038335177    7.86881712959272
C         2.72210715470725    2.58683296172164    6.86421291249706
H         3.03998795752352    2.99333715426983    5.91470806228378
C         2.77532116559080    1.22033027615396    7.08338663157942
H         3.13683982678206    0.56791501035119    6.30288722632344
C         2.37271080339193    0.68916542560914    8.29713422462970
H         2.42376017109857   -0.37609617466590    8.46462051940498
C         1.90182340263744    1.52703201413331    9.29739432999299
H         1.58512411392517    1.11736275446416   10.24553830317615
C         1.83952741971688    2.89020377566396    9.08113435620673
H         1.46272730974234    3.54736425325751    9.85770111904867
C         3.32633665942765    5.91498584524497    8.81945838462329
C         4.04900259375305    5.16448497447724    9.73802381238681
H         3.88972883470990    4.09940943919275    9.82309120325892
C         4.98669029419873    5.78533234435941   10.54732886835271
H         5.54694083226589    5.19820683200496   11.25946839287495
C         5.20795735989163    7.14819785287111   10.44633378502388
H         5.93668685832644    7.62593946606366   11.08304948170101
C         4.49901759734090    7.89796104339685    9.51939665968974
H         4.68018571359371    8.95867451843960    9.42943717194784
C         3.56527454534931    7.28388561313555    8.70832967959643
H         3.02066723974321    7.85443552139213    7.96545305416301
C         2.99200339790584    5.56518531656280    6.12316323592576
C         2.36550707911452    6.08834823091534    5.00211707552918
H         1.30549673398774    6.29543589282929    5.03824527526942
C         3.08852596466064    6.34405420802477    3.85028475249432
H         2.58905211001390    6.75597345547976    2.98654715914501
C         4.44530349107187    6.07273228084119    3.81195573109182
H         5.01212345384470    6.27200809279446    2.91559057808200
C         5.07755823237985    5.54392448344014    4.92769743222001
H         6.13517483901909    5.32946294807279    4.89845072408675
C         4.35965640023837    5.29305002382381    6.08079361055743
H         4.85509544236428    4.88427823572527    6.95079223660700
P        -1.04034298820514    6.40550923266651    6.27154803950630
C        -2.79518124349751    6.81053240291152    6.53944203105012
C        -3.65134775125037    5.76596547036129    6.88565974633731
H        -3.25792144501241    4.75747953310333    6.93634876660379
C        -4.98243678188780    6.01921877708995    7.15310873473656
H        -5.64544086229878    5.20766419526557    7.41394906692683
C        -5.46729154081808    7.31748930429104    7.08796252963481
H        -6.50687141347160    7.51536360411132    7.29929878539292
C        -4.61822048244673    8.35887783044751    6.75383281687416
H        -4.99535733973968    9.36924672525726    6.70473178691420
C        -3.28308140679413    8.11100567050833    6.48204111151117
H        -2.62319651233171    8.92638410087202    6.21856209597607
C        -0.42752782632091    7.88366392064643    5.39645818219026
C        -0.82657579730466    8.19748224391032    4.10087686465940
H        -1.50469156190405    7.54769262725634    3.56819411877335
C        -0.34359308338812    9.34308461525800    3.49414455672335
H        -0.65336043988691    9.58604360880199    2.48896383281068
C         0.53311612251038   10.17730896492472    4.16932109928651
H         0.90567402391168   11.06900882724106    3.68908419816136
C         0.93706758232960    9.86352076867040    5.45716227740443
H         1.62385099748262   10.51064113603097    5.98141852391667
C         0.46043321675307    8.71848665504791    6.06702161905482
H         0.77918851556122    8.44386668447612    7.06630885551978
C        -1.18025562970748    5.10449123353318    4.99893761676206
C        -0.23371507982566    4.08439369691592    4.97165564775552
H         0.55813427898778    4.07423293370577    5.71415609792823
C        -0.30832453107286    3.08679293167038    4.01762743164795
H         0.43080694488633    2.29976623230696    4.00524623092010
C        -1.33087406005713    3.09794525550018    3.08230758872493
H        -1.38934478722893    2.32162486955814    2.33489561778348
C        -2.28534898953587    4.10178155474431    3.11350161269883
H        -3.08906779210327    4.10561638316831    2.39281006108561
C        -2.21772198400434    5.10001923338170    4.06900334745859
H        -2.98212183426412    5.86393213040444    4.10303067239069
N        -0.73015488507470    4.04391260921229    7.99041887788843
C        -1.12837227792729    2.96193329466012    8.03472516402230
C        -1.60152121831433    1.61181121283382    8.01675873601132
H        -2.39848224006350    1.48164116694742    8.74870519010898
H        -0.77957675667094    0.93653870011199    8.25734279031469
H        -1.98365198674839    1.37157380937442    7.02402377280515

