61
CSD_code = EWONIN | q = 0 | S = 0 | Stoichiometry = C24H20CdN10O6 | MND = 6
Cd        6.29713404353973    5.61195523516445    4.54163339883853
O         6.24520670293467    6.10602407702284    2.23941544060420
O         1.49923961819157   13.57816158623362   -1.43241157609343
O         5.96550078273249    3.50677313941574    3.38052782630280
N         5.60566748527003    7.11830353270847    1.76686731652510
N         2.10678959000775   12.59656040055523   -0.94977161553744
N         4.26866803709983    5.77765937476537    4.43046741419200
N         2.57253941903630    7.47813665666982    4.27688935974808
N         2.20437745508578    9.78189154696824    3.58814165956288
C         2.03032666646230   12.30580500035804    0.37345501830739
H         1.40376100716938   12.96676497332389    0.95202203151379
C         2.85817632122307   11.79058080868018   -1.73990044510104
H         2.88314638832091   12.06610926546552   -2.78302992100200
C         2.70119499747659   11.24867980782583    0.92872294829864
H         2.57170846436334   11.02768255444529    1.97959547360027
C         3.53420963596881   10.70836390779296   -1.23916503015690
H         4.13049914747076   10.11178695876212   -1.91214181195786
C         3.48286203805191   10.41065574427740    0.12520413026523
C         4.20952706488455    9.27910356164198    0.68858599016857
C         4.81502027504442    9.34771384150400    1.94763012464120
H         4.75419056995976   10.25102618695919    2.53170639172613
C         4.34321913239185    8.07247204094676   -0.00404936262370
H         3.88598835279301    7.94142625559873   -0.97178053792517
C         5.50611830364027    8.27310605921528    2.45202537765830
H         5.99733039251722    8.29705255114402    3.41645127217018
C         5.02847268392825    7.02261751069905    0.55356602113528
H         5.14180528258162    6.07047659946198    0.05725434839963
C         3.52121996355409    6.68270150655431    4.34940282469003
C         2.41406287055749    8.69391262409685    3.91371769237985
H         6.31271919738634    3.92458364384596    2.57965136553341
H         5.00317141057606    3.56379771949665    3.30441901773832
O         6.35012931717746    5.12152174251641    6.84501811091388
N         6.99013775368885    4.10971204213895    7.31787196457084
C         7.08714308231784    2.95355037556816    6.63463641614704
C         7.77908047519619    1.87952951062045    7.13913431468073
C         8.38824364923512    1.95025050776979    8.39630613526223
C         9.11648886116514    0.81971844938579    8.95968537075238
C         9.89523381218878   -0.02028587974207    8.15538151722116
C        10.56804501443914   -1.07611031599585    8.71076797506686
N        10.49634879652902   -1.36369648645541   10.03495091866190
O        11.10564756108012   -2.34412270872727   10.51776711972591
C         9.74778289372606   -0.55582788822208   10.82582747622000
H         9.72655344171972   -0.82884666141814   11.86969914389275
C         9.06997027311281    0.52519563023426   10.32493136108895
H         8.47608954754602    1.12334313795652   10.99864108561902
H        11.19251778827778   -1.73845166533996    8.13152002511557
H        10.02098910849535    0.19809251956010    7.10349529106561
C         8.25687325739258    3.15819209455163    9.08712902636175
H         8.71681631225142    3.29084345030314   10.05335272622186
C         7.57050442282820    4.20729789684300    8.52950510326211
H         7.45888999874386    5.16037054386526    9.02442091802797
H         7.83784671210343    0.97509279665965    6.55658703994444
H         6.59327163214171    2.92818254446553    5.67158717522722
O         6.63385961820809    7.71726277109988    5.70036824766521
H         6.28909927329100    7.29989263048850    6.50257570669772
H         7.59639583252987    7.65785713975743    5.77233006451775
N         8.32578003872231    5.44410081995437    4.65265462319389
C         9.07031463050546    4.53597607081943    4.72613449849068
N        10.01583152081688    3.73588059730979    4.78788865600827
C        10.17376338924053    2.52243276502415    5.15909305884388
N        10.38289868459758    1.43546089705738    5.48833678521396

