116
CSD_code = EWOPUD | q = 0 | S = 0 | Stoichiometry = C50H60CuP3SSi | MND = 4
Cu        5.60679891458941    3.97112766253692    6.61700947845164
S         6.10251883588727    5.90875881675876    5.65501968105688
P         4.17602767985878    2.40337743614385    5.49323326949899
P         3.19236824301202    3.62613854569630    8.01611745877616
P         5.82555412572564    2.42112779832038    8.24265928485737
Si        8.00988674721398    6.38225989920641    6.42764107730021
C         3.10909049189797    1.09221075957296    6.23652624196379
H         2.07679495140146    1.44070411043027    6.12516201810414
H         3.21536611022651    0.15893571551256    5.67682017336109
C         2.69991893094543    1.93618416882378    8.56046226051518
H         3.02494369312474    1.84376511427567    9.60272735875651
H         1.61381543053814    1.81220773741563    8.52008362897554
C         4.89921130075022    0.82439803245684    8.02641341523066
H         5.40825948580986    0.29475879521651    7.21544290124078
H         5.07324244431287    0.25232569227041    8.94559954626450
C         3.39428171766561    0.85916727659866    7.72698521422099
C         2.80784062763688   -0.50718599309417    8.11510408148856
H         2.87502164873653   -0.66535166619044    9.19011924732120
H         3.34385039299361   -1.31385868362607    7.61772812433667
H         1.75935556885944   -0.56626896893461    7.82795944268642
C         3.28095736708614    2.80105849397712    3.95229222655052
C         2.24879423059309    2.05024385677938    3.40464211958210
H         1.89985352694053    1.14807258006447    3.88479823944559
C         1.65487728272268    2.45687194360066    2.22259057026122
H         0.84839294207672    1.87234051740895    1.80284794469603
C         2.09051603507167    3.60027334519454    1.57583231254299
H         1.62252554917625    3.90807631904390    0.65216322049754
C         3.12375917164195    4.34813238211634    2.11692603570725
H         3.46446529482617    5.24373715993265    1.61919547819276
C         3.71255217081724    3.95625364152019    3.30313665072004
H         4.49343711412786    4.55863560226741    3.75039546088293
C         5.53004847235932    1.46580178990492    4.67761630726683
C         5.64461351844875    0.08701117186540    4.54128715497962
H         4.89120891991108   -0.58383942685552    4.93008546705495
C         6.74483966471669   -0.46132307996488    3.90268451054605
H         6.82465690950117   -1.53552482802434    3.81126389636225
C         7.73632213254532    0.35429695941365    3.38581460036329
H         8.59272226913674   -0.08244455596610    2.89360847283324
C         7.62368474663339    1.73029706957447    3.50406056643799
H         8.39050841901477    2.37561532870373    3.10370840457431
C         6.53146368844287    2.27830241896346    4.14709859957157
H         6.44349111019171    3.35260395244611    4.25843485064470
C         1.94841232191245    4.11761579840243    6.76027397086935
C         0.63297837733014    3.67232791264808    6.70360035974948
H         0.25983240437537    2.94717412843649    7.41448971138643
C        -0.22061305499851    4.16588059594707    5.73401566731873
H        -1.23841598667574    3.80490874118565    5.68443502900138
C         0.21811867312638    5.12688976926274    4.83757596787502
H        -0.45701875949025    5.50898921811014    4.08610207312145
C         1.51697207426448    5.59867133728079    4.91212234524749
H         1.86322757688586    6.35514823361537    4.22480536006152
C         2.38241096786801    5.08913665102097    5.86262020799134
H         3.41027629505519    5.43504083907942    5.90796958455524
C         2.46084103007041    4.64746355753555    9.35234958935064
C         2.66471045599465    6.01657026761138    9.18202617161638
H         3.19024748141357    6.35998428619558    8.29922643415515
C         2.21134307556679    6.91942740705650   10.12146366133070
H         2.37573058215050    7.97747309812748    9.97865685374457
C         1.55196108876334    6.46312908201361   11.25260253528094
H         1.19885726059235    7.16417373023322   11.99467491820652
C         1.34912969763237    5.10620073741436   11.42970824778139
H         0.83514287268904    4.74809953427951   12.31058186306661
C         1.80023138191477    4.19751995612833   10.48703087114520
H         1.63009347414426    3.14440411444621   10.65352403963803
C         5.46432984320549    2.89814656729346    9.96813668356132
C         5.28067866523237    4.25471498110190   10.21003670147410
H         5.34895867239549    4.94334102545531    9.37726059915530
C         5.02768833012330    4.71379836757406   11.48981337288348
H         4.88309913961562    5.76941424083264   11.66487069432115
C         4.94535909197815    3.81421776420656   12.53845303720500
H         4.73459414264833    4.16458588429349   13.53794473943469
C         5.14310762852992    2.46152139023033   12.30780450205066
H         5.09440773188954    1.76099104982497   13.12936199046095
C         5.41103835491821    2.00167562455528   11.03154156403063
H         5.59445210861069    0.94731398057982   10.87279464200395
C         7.49687263175592    1.70456648960885    8.46289265276837
C         8.03109978150720    0.89442013389868    7.46214627882968
H         7.43066263635011    0.62123971381779    6.60558458626769
C         9.33679246226707    0.45059242300146    7.53951534669902
H         9.73251031675393   -0.18426427656018    6.76001699968186
C        10.13929893097560    0.83037488053619    8.60271629142387
H        11.16118182463067    0.48606026110045    8.66139013787290
C         9.63151293230517    1.67062911816416    9.57895489670220
H        10.25921280586961    1.98994232280454   10.39836857037785
C         8.32341438705248    2.11333041682513    9.50675273081159
H         7.94192224019301    2.78148798050435   10.26628646301161
C         8.37914160143944    8.22147260726903    6.00946601165682
H         7.89667670611095    8.83161977994623    6.77935528057315
C         7.78602726316442    8.64403361786044    4.67008626617442
H         7.92206665247475    9.71356414264080    4.50946778779314
H         6.72456048286521    8.41694003517468    4.63835332696798
H         8.26636692262274    8.11254283988672    3.85242062745843
C         9.87152846124417    8.53415274678076    6.03865744874898
H        10.39446199853203    7.98198255084291    5.26097232763379
H        10.31392446408475    8.27275429262698    6.99705475059685
H        10.04076483604320    9.59745605136746    5.86580802584138
C         9.35776252527366    5.21504117729469    5.69921689592910
H        10.34757453182396    5.55768903652930    6.01583763712453
C         9.32646077835977    5.22771375333297    4.17533065117423
H        10.03572264959120    4.50737130297280    3.76548479332973
H         9.58455057328458    6.21151485780649    3.79171379308095
H         8.33041579502433    4.97973369417355    3.81543783485204
C         9.17377965709738    3.79245873208485    6.21471101834162
H         8.15360874585428    3.44770994407447    6.03546251176378
H         9.35651021975885    3.73646017584595    7.28495602659509
H         9.85529821653160    3.09983919475863    5.71997962199852
C         7.96025057609103    6.12052193214330    8.33666906167548
H         7.56901113670182    5.10383443432076    8.49589019814332
C         9.31785688730100    6.20681122110798    9.02090508667819
H         9.71994263625605    7.21477858909299    8.94154593418768
H        10.03052471511044    5.51602264908610    8.57676164791884
H         9.22747755192625    5.96568097462910   10.08123707726226
C         6.99379246622580    7.10065984227154    8.99193097081540
H         6.85481081657962    6.86942712602226   10.04851391746213
H         6.02478622177641    7.07437506665009    8.49702815259123
H         7.37954208413175    8.11533340408250    8.91814937770808

