92
CSD_code = EWOQAK | q = 0 | S = 0 | Stoichiometry = C43H42CuOP3S2 | MND = 4
Cu        9.72844041656159    0.92278807370349    1.74174274244452
S        10.85805259630874    2.86233559560558    1.77017385881035
S        11.10043930842906    4.26758196796662    4.37998656005592
P         8.98143940510767    0.38662625389449   -0.87717744173649
P         7.52203307760511    0.14871096476828    1.73547084841593
P        10.29912094977631   -1.18851256491353    1.10570102080409
O         9.83152001923323    2.00579443986683    3.91516263761943
C         9.83651724702191    0.90993446992647   -2.40500769606388
C        10.41925062885256    2.17384359502398   -2.31373369553497
H        10.30915741660692    2.73862637652509   -1.39602479056654
C        11.14169091341170    2.69011330862607   -3.36970834229742
H        11.58933759974263    3.66960410906982   -3.28946969799839
C        11.29999346901469    1.94339176435015   -4.52718470996661
H        11.87018981127399    2.33965321915977   -5.35454995371353
C        10.72927101798920    0.68654109404984   -4.62001652909429
H        10.85290063120157    0.10254984304838   -5.52111164958800
C         9.99849164389881    0.16589137590376   -3.56536709554472
H         9.56416608532555   -0.81784290858512   -3.66406451310577
C         7.56011906683865    1.53429584255419   -1.06658496694640
C         6.52887474586681    1.39309020386604   -1.98785683202205
H         6.50013006525111    0.54733380257955   -2.66158561445614
C         5.53056563504007    2.34774446079396   -2.05918313825837
H         4.72472902423515    2.22567364290075   -2.76926893638604
C         5.56507364095721    3.46208082315500   -1.23667752376069
H         4.78221275697307    4.20322530360022   -1.30019054958432
C         6.60909551185806    3.62799865834189   -0.34337001573900
H         6.65041306782208    4.50121258994714    0.29010788223515
C         7.59576259357628    2.66393785418819   -0.25367117625999
H         8.41438803344131    2.78059004449532    0.45003387873860
C         6.10739778111477    1.26511900365852    2.01112427784461
C         4.84178858308792    1.19789879026616    1.44409742147980
H         4.56602703218817    0.39026502490813    0.78197939376278
C         3.90899919384151    2.18113369813428    1.72819212059288
H         2.92603836392303    2.12540560542285    1.28270298472199
C         4.22563992350583    3.23001368846081    2.57332632900739
H         3.49158483910906    3.99338779302661    2.78453009011540
C         5.48730659838093    3.30205250139286    3.14401401398543
H         5.74105524330837    4.12159712183996    3.80009595844269
C         6.42134691028522    2.32859028989487    2.85708411541855
H         7.42031255418804    2.37814156921616    3.27274681479176
C         7.43554812156053   -0.76003637240354    3.32901461428891
C         6.21605690351435   -1.17142774922692    3.86115750169267
H         5.29439029474551   -0.92193352308017    3.35182298906158
C         6.18051016532223   -1.88219141418669    5.04604587911097
H         5.23102887991885   -2.19545420829289    5.45542975746400
C         7.35758405249991   -2.19247170996002    5.71021134433076
H         7.32488307385636   -2.75328123424994    6.63242659017490
C         8.57232632549091   -1.77355118858991    5.19474108162426
H         9.49339426192904   -2.00300569154738    5.71041780609601
C         8.60834934454799   -1.05306597158351    4.01331873288163
H         9.55583436434906   -0.70223281150427    3.61889052584376
C        11.34437649691790   -2.14098650555544    2.27464522649091
C        12.37839941145081   -1.36503687480559    2.79967123634385
H        12.46591134096660   -0.33286193959894    2.47437436718718
C        13.26237129803664   -1.89261650334363    3.71821881693620
H        14.06007525202710   -1.28304939548684    4.11616430662447
C        13.11319396940095   -3.20689639753402    4.13489222561786
H        13.79689759570117   -3.62643229702573    4.85801771604395
C        12.08240762964092   -3.97913793980667    3.62839467763578
H        11.96345450285911   -5.00176542408262    3.95749801290539
C        11.19645755000946   -3.45381492623511    2.70210225497689
H        10.39890279035698   -4.07792324246575    2.32664071543032
C        11.45432154479257   -1.27118545792875   -0.30621312447874
C        12.08791864210000   -0.07438130070150   -0.62739710265194
H        11.83963168964228    0.81939497470475   -0.06301393040543
C        13.01653711161653   -0.02803312472109   -1.64993582743608
H        13.50127162200889    0.90477809369556   -1.89460897139470
C        13.30956930095511   -1.17725478332906   -2.36451590000985
H        14.02249535649338   -1.14375298198640   -3.17488754566940
C        12.69605837703199   -2.37528081059152   -2.03501096957116
H        12.93806013647829   -3.27477771689735   -2.58320415959994
C        11.77987584711550   -2.43027929696132   -1.00030620095282
H        11.33028531121629   -3.37828474542220   -0.73579644050406
C         8.98039288481565   -2.43668927107775    0.76464563821922
H         9.47406460640014   -3.30996941892326    0.32216921542590
H         8.59584021133995   -2.72516885308307    1.75150327977307
C         6.79449978708782   -1.14799864307933    0.63014452940315
H         6.14701966839300   -1.78087058716602    1.24843116749557
H         6.17836109501444   -0.62214874377022   -0.10614851936323
C         7.80927590680688   -2.01284000553652   -0.12646365518628
C         8.32328521791502   -1.26399690943960   -1.35724517667236
H         7.53870595051431   -1.17778149465151   -2.11433816689370
H         9.16682039747064   -1.81750465975673   -1.78391835186608
C         7.08585812983178   -3.28495415863287   -0.59492755038360
H         6.79202438726522   -3.89711257936224    0.25620823921325
H         7.73179704888243   -3.87979824473030   -1.23847341918489
H         6.18944294615015   -3.02943034073421   -1.15723216635378
C        10.57672498839439    3.03913570980271    3.43332345205648
C         9.52898215482067    2.00625635292125    5.29995560262549
H        10.44502867612925    1.91072515588330    5.88793923238862
H         8.87359174547463    1.15434044782909    5.47079153302988
H         9.03213223057853    2.93841742359015    5.58056082952571

