52
CSD_code = EWOQOY | q = 0 | S = 0 | Stoichiometry = C26H20AuClN3P | MND = 2
Au       12.09650023869335    2.00814703117128    0.17165295466005
Cl       12.79962811628025    1.03121852408422   -1.74186015650184
P        11.46644949696856    2.87498521516422    2.14692710271759
N        11.63649730054317    0.40055812831528    3.36400619393024
N        10.99042570382561   -0.39744235385532    4.19586413928737
N        10.05220023960639    0.25664651843585    4.76555209360409
C        12.63896140954274    4.03580830685547    2.89451104403346
C        13.16791921033240    5.01537384155684    2.05709245708251
H        12.85396449447253    5.04851281232146    1.02083022362592
C        14.08669521745392    5.92187675291472    2.55048221136971
H        14.49263352695378    6.68437994365644    1.90288315236118
C        14.49283521037055    5.84281485757944    3.87406059444761
H        15.21475549926426    6.54738921764772    4.25827233248853
C        13.98552902005677    4.85477397190037    4.70207750914096
H        14.31322418527058    4.78643060784792    5.72877990852906
C        13.06070646102949    3.94685201050443    4.21694903854808
H        12.67240313769472    3.16856660650714    4.86158087669724
C         9.90523498035749    3.78981388035709    2.02625854560434
C         9.80045233135453    5.16418798123707    2.19788383688139
H        10.67225039240970    5.74973652089679    2.45493533007552
C         8.56876020045073    5.77808013135894    2.05614581435541
H         8.48536218007486    6.84548118643865    2.19642670617266
C         7.44735795585061    5.03020339007898    1.74156637941122
H         6.48754500839549    5.51384937904853    1.64153877763552
C         7.55585709610044    3.66252799736111    1.54273066155156
H         6.68441094565192    3.08067408651549    1.28340729466266
C         8.78297318265067    3.04422295072609    1.67120612242877
H         8.88131731587518    1.97846233321829    1.50485838213072
C        11.09087372624727    1.65656190795452    3.39940506018581
C        10.04635628909582    1.52928981567866    4.32601600746801
C         9.08058821989778    2.50746028484640    4.79735564671005
C         7.77457874017508    2.09914239745224    5.05789690008302
H         7.51631073151530    1.06014367769689    4.92305574225178
C         6.83189240566034    3.01849427069769    5.47420784888228
H         5.81849614338893    2.69890092297390    5.66642447270364
C         7.18357161032834    4.34770109278167    5.64552100104614
H         6.44463673743451    5.06598160063395    5.96816799157267
C         8.48742256664845    4.75229798165458    5.41528114158371
H         8.76913277971019    5.78423490387815    5.56477342079641
C         9.43459171813195    3.83844058160373    4.99456616754818
H        10.45570299708847    4.15475408089100    4.83426710532478
C        12.71216125357574   -0.05725842680489    2.59010916545997
C        12.64377819918254   -1.32533377790945    2.02605780361540
H        11.77249738820386   -1.93511176756746    2.20774533243588
C        13.68485269232199   -1.77004977991104    1.23369506915480
H        13.62720285705961   -2.74521060645183    0.77600505675287
C        14.79022786043210   -0.96401159947288    1.01343315676547
H        15.59262489747914   -1.31005848220194    0.38126581632967
C        14.86658775236967    0.28701462435629    1.60073967833957
H        15.73034634881141    0.91325564902136    1.43889079655975
C        13.82759849321932    0.74889041959208    2.38953192568101
H        13.89421753448854    1.71473839876891    2.87446816580662

