43
CSD_code = EWOSAK | q = 0 | S = 0 | Stoichiometry = C17H17N2O6V | MND = 5
V         1.63006007009827    2.70711317667862   15.55201010827202
N         1.58023738495725    4.05301614603899   13.98807188765298
N         1.14751410405123    3.53778278834757   12.83485307187904
O         0.20147393380068    3.08884640973015   15.93712570996814
O         2.70643738249754    3.85575973595032   16.19990661832751
O         1.39062379953982    1.64394050779123   14.02474239311010
O         2.16263371630872    1.37571837811536   16.31300292480817
O         3.68192339934485    4.88522129462405   18.41990193062920
O        -0.99827386656682   -0.68475206119364    8.60773533440165
C         2.70587773748876    5.15103150591579   16.31416292581550
C         3.23134919285335    5.76394382356939   17.48376261520782
C         3.24093502233737    7.14097694138945   17.58849366636694
C         2.74578593397725    7.93307068650049   16.55041437656574
C         2.23773594837650    7.36313142183789   15.41124642524879
C         2.20035696859823    5.96500024725611   15.27477788483320
C         1.70120718801314    5.33525866188822   14.09455164902956
C         4.15301591272659    5.39955490420831   19.64132092629747
C         1.02664171940915    2.23514103501999   12.94707361372120
C         0.49866966137906    1.46083776914648   11.82090126548366
C         0.16129792213007    2.07940107410015   10.61413096474675
C        -0.33167272356061    1.33461082962992    9.56990960638074
C        -0.50695716908661   -0.04838284276390    9.69956208075936
C        -0.17617766047065   -0.66705980967838   10.90321669772510
C         0.32123856881601    0.08588061234507   11.94895025153677
C        -1.20688831587015   -2.07611570573166    8.66770553110641
C         2.10803392455917    0.11637673501188   16.82398255363582
H         3.62925353351753    7.62230123080743   18.47190072420642
H         2.76730766525297    9.00661631295313   16.65794930261951
H         1.85310556759976    7.97758952434257   14.61160808390720
H         1.41063326600682    5.95640915700092   13.24573970704668
H         5.03721432685082    6.02983503107294   19.49786802284827
H         4.42284531558599    4.53248338697195   20.24180598028903
H         3.37788423012418    5.97245446813691   20.16015972165443
H         0.29492528502389    3.14472975202450   10.52320367646504
H        -0.59712682682183    1.79300692626864    8.63048491500716
H        -0.30353041097086   -1.73008391585397   11.03429547567149
H         0.57433081378418   -0.38679459181698   12.88696681497991
H        -0.27108696363808   -2.61524885095099    8.84528058469486
H        -1.60333679611996   -2.35599320066614    7.69313245031879
H        -1.93296529263782   -2.34054462583394    9.44257439385688
H         1.87800914768039   -0.59003359192030   16.00726564801465
H         1.31969306060413    0.04393779960365   17.58956626702848
H         3.07506432244728   -0.16416907786326   17.26768521787977

