72
CSD_code = EWOSAM | q = 0 | S = 0 | Stoichiometry = C36H28ClCuN5P | MND = 4
Cu       -2.54068695378227    9.55022981770881    4.72510729859012
Cl       -4.58623263730621    9.25912482202475    5.54135098488482
P        -2.82415172012825    7.90391838078657    3.20194421346059
N        -1.43812115069964    9.82724579570051    6.36890114466100
N        -1.54622262999088   11.14888331235255    4.09625403000235
N        -0.50470150007025    8.29684065379019    1.73314197674571
N        -0.05665147662594    8.38463479099534    0.48215184528383
N        -0.95839260190538    7.96088725351697   -0.31377692020139
C        -1.65735220126939    9.23802263785545    7.53815152726653
H        -2.19026175968775    8.29847228653145    7.49409393830348
C        -1.23573336081952    9.77740545927857    8.73648321578049
H        -1.41818981163009    9.25837913600509    9.66356653142776
C        -0.57161415727528   11.00163524767597    8.71853878061780
H        -0.23670981541845   11.45752552252053    9.63820656007835
C        -0.36169729586550   11.63082151530861    7.50806323587222
H         0.11369723041062   12.59807207981061    7.46664604384808
C        -0.80490688395730   11.01460803008444    6.33722362563378
C        -0.66439365131121   11.59667508575157    5.01087131563004
C         0.30629387181687   12.54169859786749    4.67583724728995
H         1.01543236215325   12.87171202703652    5.41804495697059
C         0.35821545077502   13.03052838620827    3.38726847036907
H         1.09453619254360   13.76875172699060    3.10816075795807
C        -0.55331650365366   12.55071157342758    2.44887230773867
H        -0.54822671194079   12.91068247945853    1.43281436555413
C        -1.47618971929232   11.60964437690903    2.85265558400269
H        -2.21182852527593   11.21460129364068    2.16433111199430
C        -2.80201558134113    6.23121105912910    3.91062550003894
C        -3.50267290656807    6.03279621804324    5.09910621578344
H        -4.04044828500094    6.86566934890354    5.53587683455437
C        -3.49942834173334    4.78737500896536    5.69968508935268
H        -4.05012323021305    4.63275038226701    6.61594435229554
C        -2.78790951344737    3.74180900953815    5.13160065803285
H        -2.78587193796814    2.76938862414301    5.60195548546585
C        -2.06897795642891    3.94499591277565    3.96496985721471
H        -1.50485327576575    3.13443623792080    3.52677452327829
C        -2.06906705930470    5.18636655282712    3.35407776984231
H        -1.50027688395458    5.34038708885035    2.44590719502172
C        -4.46414391238759    8.04892384678097    2.43343354031709
C        -4.65106989867690    9.09534231876435    1.53386510583543
H        -3.82375599457672    9.75325309863021    1.29773991183893
C        -5.87927651848862    9.28838873677526    0.93482684084590
H        -6.01382053984774   10.09473520520872    0.22849593431974
C        -6.93829791975663    8.45182244902487    1.24740348473049
H        -7.90034968568831    8.60333553764475    0.78092400861689
C        -6.76552690078896    7.43269198825271    2.16770269762524
H        -7.59567782616712    6.79158443049000    2.42552494059230
C        -5.53475117723276    7.22869025245710    2.76411797317781
H        -5.40878229237961    6.43429287512539    3.48454203814218
C        -1.77222131356641    7.77574031497425    1.74376212698283
C        -2.04441099585542    7.57026012829998    0.38572609871412
C        -3.22432153631370    7.02943375298300   -0.26885601605266
C        -3.61083991039720    7.54150565208641   -1.50509138230525
H        -3.01435006485909    8.31908760194615   -1.95749955142784
C        -4.74413184506769    7.06125758277841   -2.13152101832788
H        -5.04425475579841    7.46872746549833   -3.08598114492552
C        -5.49597676945553    6.06049593916280   -1.53789218967490
H        -6.38502002326736    5.68934114799274   -2.02609306344383
C        -5.10031876631645    5.52925318031647   -0.32187627917447
H        -5.67587270639838    4.73871918623060    0.13695491359996
C        -3.96909334646366    6.00676447113029    0.31125188292145
H        -3.65540173722414    5.57737762264901    1.25176550848833
C         0.30363286421430    8.68453200868553    2.80430062941544
C         0.19309445123057    8.07809957458645    4.05013472798826
H        -0.49448074841256    7.25891387094099    4.20491396942505
C         1.02095038622097    8.48797870403197    5.08126798019283
H         0.93751538698013    8.01312256807978    6.04699252445602
C         1.95443420310603    9.48760875559880    4.87505804746918
H         2.59638646575783    9.80203988657987    5.68420555083523
C         2.07763599324185   10.07239467294848    3.62354436173763
H         2.81842953574440   10.83925184064322    3.45443902157721
C         1.25642843323392    9.67613593905066    2.58733047171781
H         1.34089039762019   10.11139966107956    1.60405872298969

