100
CSD_code = EWOTER | q = 0 | S = 0 | Stoichiometry = C39H53MoN2P5 | MND = 6
Mo        5.07960124823885    3.74989460429764   15.66804912807154
N         5.50313063947033    1.95705823965725   15.72282230629996
N         5.79219674320783    0.88104537963023   15.86193457918732
P         5.42002151031384    3.95084576587454   13.32732573587062
C         5.83958765091484    5.62782809173974   12.64502114170223
H         6.91632370811789    5.75845242217609   12.79006224492641
H         5.65414544410906    5.59483851590921   11.56592013341954
C         5.09772729413248    6.82455882822922   13.22984647094204
H         5.28939832878557    7.69148749667438   12.58543933957771
H         4.02197642170513    6.63272932176358   13.20503566233049
C         5.50106020345626    7.16838289790763   14.65855645783209
H         5.19992800887423    8.19745443007480   14.89867050056148
H         6.58517311669875    7.09030619639457   14.77031124894919
P         4.69247659875744    6.03427327356257   15.85827029168715
C         2.99946433101374    6.77716460587799   15.80157825104094
H         2.95073370603475    7.59059114588352   16.53655476538830
H         2.83467883036276    7.21647003250139   14.81268372796471
C         1.91377224039119    5.74643856776182   16.08045684231758
H         0.96094321431106    6.26713008872729   16.22962381598133
H         2.15492910658844    5.21714190246832   17.00582113378780
C         1.77092829120630    4.71827861261407   14.95582629358676
H         2.12542261748466    5.12317414107237   14.00269409496547
H         0.72274080529433    4.43373775347674   14.83536516536486
P         2.79614809849468    3.23822254439464   15.30481965479935
C         6.80020862503123    3.04776305558483   12.52490545521829
C         7.08472292223547    3.20496665135070   11.16912897368627
H         6.48487507116175    3.86591999706780   10.55953366760623
C         8.11893062116868    2.50058495470404   10.58353642142501
H         8.33171336262771    2.63558922321272    9.53236933798637
C         8.87683111367588    1.61540830398819   11.33431258606716
H         9.68159583046363    1.06312026183439   10.87096114930444
C         8.58894208808288    1.43560042009041   12.67520256951466
H         9.16439606796740    0.73660832312444   13.26554700152495
C         7.55825803370667    2.15020175620962   13.26266834708242
H         7.32811797240422    2.01232543098510   14.30853659498127
C         4.15829446447624    3.43689174090092   12.10303976418035
C         4.16780937046697    2.10938778015109   11.67889519334677
H         4.88725909608294    1.42367119435231   12.10667844332560
C         3.28813170991512    1.67090814969605   10.70974042082157
H         3.32491752905377    0.64433821087355   10.37534311760482
C         2.36136644764810    2.54452713544312   10.16509760964152
H         1.67497132436454    2.20362186134607    9.40377236780971
C         2.31931270524829    3.85568851454937   10.60241497586687
H         1.59479313454535    4.54248208392574   10.18640535616759
C         3.21376655178220    4.29998172733501   11.56054601731786
H         3.18005542130067    5.33612495611503   11.86484751970661
C         2.19079346639244    2.03470854574654   14.05659590765538
C         2.84514374030256    0.80533205279066   14.01442902294824
H         3.75632622420626    0.66569143404178   14.57695064287995
C         2.35533402965582   -0.23540908209013   13.25016700868619
H         2.87318080964643   -1.18388591622667   13.23990521362698
C         1.20550974949744   -0.06203705401079   12.49867128808846
H         0.81347940513074   -0.87508948612043   11.90469688893308
C         0.56797468735213    1.16511963316075   12.50458782733665
H        -0.31969115644406    1.31601289252601   11.90611696413905
C         1.04964097207455    2.20462855858952   13.28093634018375
H         0.52751625586570    3.14864314447415   13.25656217902893
C         1.84375540059411    2.40689938494971   16.63132324741095
C         0.58801646847093    2.78708056205188   17.09388486086722
H         0.09738785338355    3.66838141721886   16.70980327244986
C        -0.04907290583683    2.04709616725474   18.07618469014562
H        -1.02060658547382    2.35975716517859   18.43293553545385
C         0.54593930498593    0.91234166551244   18.59861829018951
H         0.04156916741681    0.33724983369503   19.36151697279971
C         1.79176104054069    0.51946374378811   18.13640633061020
H         2.26212899220645   -0.36815509101861   18.53578792538892
C         2.43387936176751    1.26319460116418   17.16502332761073
H         3.41115851136676    0.96301842749382   16.81397102714524
C         5.25839615956662    6.77059811703689   17.45050693089181
H         5.48323678818151    7.82860657949233   17.25642350295534
H         4.39855720917725    6.73539583789817   18.12907279413221
C         6.45210062284571    6.11828919959454   18.15999890829490
C         6.98252921146282    7.13377497601440   19.18753710838475
H         7.39816688180846    8.00685176005996   18.68664096067216
H         7.76501054283783    6.68691041299045   19.79882951151305
H         6.18283130364561    7.46687642621227   19.84734576427034
C         6.05080261825372    4.85268269989287   18.92222832208329
H         5.57040603618705    5.13133712027002   19.86744265281126
H         6.96170817550795    4.29705641114997   19.16669030777149
P         4.90111055287878    3.70810681367441   18.03554776069009
C         5.29173865413324    2.14132527307992   18.90424368409240
H         5.63947698309159    2.34065761622841   19.91975985224234
H         6.04015306784263    1.57229663439198   18.35534895164065
H         4.37683339985252    1.55083410472110   18.94574307503649
C         3.39838635477585    4.10177161981488   19.03001211986860
H         2.56541684980177    3.48000230828140   18.71030159864649
H         3.12359009081843    5.15036758710948   18.92534022529666
H         3.61239443550772    3.89401897647972   20.08070019945364
C         7.58681484500621    5.79862850950261   17.19148336435753
H         8.51271280987443    5.63419257264705   17.75735223310502
H         7.75008309443607    6.66064409916522   16.53640189819080
P         7.33102792013020    4.32344096755452   16.11372057487399
C         8.31828835389467    3.04950382499892   16.98553297544585
H         9.31414039370472    3.42386552008259   17.23040334279751
H         8.41199092083994    2.18878632287493   16.32188954266341
H         7.80901959024392    2.72661592701143   17.89035463177266
C         8.63652533301459    4.77995177701167   14.89964883628862
H         9.55206722791120    5.03083817054560   15.44017300275497
H         8.32828013770406    5.64093035211745   14.30981155563098
H         8.82820102053785    3.94608229039937   14.22706717107035

