55
CSD_code = EWOXAQ | q = 0 | S = 0 | Stoichiometry = C24H18N4O6PtS2 | MND = 4
C        18.08297030848321    9.00017303673063   15.51741914983594
H        17.88241567514958    8.50460418265855   16.46105264464908
C        19.29780325349610    9.61270134022450   15.26765400768056
H        20.07806486023516    9.57733740794826   16.01136421910970
C        19.48374677644266   10.27983620485326   14.06632593649269
H        20.41574892260016   10.77961661961219   13.85081356888224
C        18.43927520805154   10.30184976301969   13.15511828781928
H        18.53164071067323   10.82162032910697   12.21553795149123
C        17.25373408658244    9.66834513619574   13.47742018825143
H        16.40901554216795    9.68413412285267   12.80059907040086
C        16.00770991481130    5.79412907563752   14.85554007167556
H        16.79666502794086    6.07860440096604   15.53957282354095
C        15.82947485396637    4.47615095231766   14.48040140837898
H        16.49201127608048    3.71484806787714   14.85967371769906
C        14.78087830811259    4.15173965199903   13.63220747180714
H        14.60896125134963    3.12975407299904   13.33114513762404
C        13.95154587058595    5.17129953091756   13.19103551563920
H        13.11717087370397    4.96704158218450   12.53926153799281
C        14.19342588731149    6.46717813355827   13.61074152963907
H        13.54918503409478    7.28487107254821   13.30630873704883
C        11.38948094430949    8.53606977972860   17.42207790091855
C        10.24558636034596    8.85915687434236   18.11163572762852
H         9.66488660829827    9.72524310806539   17.83586207667126
C         9.87367481040263    8.04337580068518   19.17517049552377
H         8.98406993666501    8.27806132848143   19.74102810450828
C        10.63622841168526    6.93744161034218   19.52053576563249
H        10.33144208921654    6.32035299523795   20.35331215886477
C        11.78777723523260    6.62003563582493   18.81524791293191
H        12.39886234375516    5.76978870560342   19.07589844884307
C        12.15486523045625    7.43183415617936   17.75513645638580
C        13.37747009004334    7.30147871691321   16.91820136858835
C        15.63888238243113   11.52712075952591   18.36829236889006
C        15.71689152594717   12.07309002999028   19.62900029265218
H        15.49576492901500   11.47485212855714   20.49876402757474
C        16.08534542820845   13.40953311599066   19.74049064145125
H        16.15308428304401   13.86369705111916   20.71777486219479
C        16.36230707175829   14.16515493607561   18.61035988695300
H        16.64216016545691   15.20255863372058   18.71942060747797
C        16.27848677515335   13.60585621504362   17.34366958636192
H        16.48586400676499   14.17840301167702   16.45297135430579
C        15.90589422214985   12.27621390420378   17.23429490061778
C        15.77628693975791   11.49218470491649   15.96587024482091
N        17.08020621257702    9.02446496178431   14.63469327165676
N        15.20845418390053    6.77342329185740   14.42584829378636
N        13.42607239773036    8.22572918552216   15.94986137222938
N        15.22051457790632   10.29933747446734   16.20363655947951
O        14.23138613216060    6.43235224485809   17.05567675641704
O        12.56260202767700   10.65695117080469   16.19051164408937
O        11.34695309907160    9.04643383255985   14.83916445495201
O        16.18209366087157   11.88316166853838   14.88042572776793
O        13.87402718680795    9.54244621208486   18.32336157281479
O        16.21516115786745    8.94030099973667   17.99933777979001
S        12.16434696558017    9.29443785462556   16.00170110503150
S        15.15429963192213    9.90196572943749   17.79261628835612
Pt       15.26262733399940    8.55405748728745   15.25325700816071

