49
CSD_code = EWOZOG | q = 0 | S = 0 | Stoichiometry = C15H27Cl3N2OZn | MND = 4
N        -0.36594121408422    9.04170499496870   11.52508226303867
C        -1.06116669393640    9.62480980723626   12.70980424086130
H        -0.52737206036030   10.52862745017903   13.01147817184218
H        -0.99887208262256    8.88015772066594   13.50772983166780
C        -2.51478822505083    9.92874330449298   12.37706868435302
H        -3.02604981552199    8.99477687806873   12.13673041282565
H        -2.98766054401469   10.35093730993724   13.26298683392238
C        -2.61519716262688   10.89052481417734   11.19792123866110
H        -3.65906719377793   11.02123404154572   10.91537504368872
H        -2.21315384816887   11.87043193866028   11.47194297107302
C        -1.82649047889862   10.31877678573824   10.02223883731706
H        -1.85109100721502   10.99925398126092    9.16969541124960
H        -2.27364412346384    9.36669783073889    9.73352620555101
C        -0.37731128806673   10.09120302902096   10.44969024247406
H        -0.01315361925968   11.00559787937834   10.93409609238836
C         0.59438894108467    9.82470761165254    9.28628548329972
H         0.55428606880633   10.71707817414391    8.65157406621494
C         2.00181644894158    9.64741474746960    9.84918474748542
H         2.29421822727038   10.51649150891471   10.44123275891785
H         2.72713447510864    9.54299295945221    9.04307354769090
C         1.96266338438869    8.39721242719872   10.72531146192063
H         2.94770870782335    8.21799864611410   11.16619583979938
C         1.02158209936912    8.66884542857856   11.90618666122249
H         0.92777931983966    7.79194592907983   12.55576945282695
H         1.43834959916528    9.48648846852431   12.49819626171873
C         1.61737002209750    7.15341210041418    9.88747365200034
H         1.41329336752256    6.30897841926712   10.56039266907970
C         2.75311632691786    6.74111022673842    8.95040101999958
H         3.64266224914020    6.54198418548413    9.54815076180579
H         2.99797991839201    7.53742771259215    8.24454462022180
C         2.35426385192674    5.48651895565751    8.17878337306118
H         2.16477459002533    4.67670916761538    8.88374995451226
H         3.16300704613281    5.18415144970238    7.51273822751385
C         1.08220842664971    5.76117507271137    7.38503840898316
H         1.26667683380786    6.52955621691399    6.62974787849424
H         0.76067004365854    4.85920312341911    6.86575511460844
C        -0.02065073490113    6.18341954079192    8.34575697451064
H        -0.20775733377151    5.37403119138772    9.05850276639337
H        -0.94601733123900    6.40941903711731    7.81343105140185
N         0.35231722214934    7.36368906817865    9.14511537488335
H        -0.39925372928886    7.48313717886420   10.00588777635561
C         0.27410604332315    8.62141265614611    8.39864812733085
H         0.97840308667353    8.61360318908720    7.56180007071260
H        -0.73572992545930    8.70873632937179    7.99133410444940
O        -1.04920120641655    7.92814253997905   11.12784799995219
Zn       -1.62644041072544    6.11378651329489   12.47348355893053
Cl       -0.27239427462690    4.73354422598115   11.25668947380125
Cl       -3.78510106747876    6.44951021471299   12.09635437243443
Cl       -0.44477092923954    6.79638801737585   14.31679590655217

