50
CSD_code = EWULAJ | q = 0 | S = 0 | Stoichiometry = C24H17MoO6PS | MND = 6
C        21.70391758208411    9.19511964260333    9.67787052808007
C        22.64558229468266   10.20561219078855    9.84892250927252
H        22.48549622526253   10.95427391643774   10.61346203237643
C        23.77162520149216   10.24233404390045    9.04901030447630
H        24.50395615179955   11.02471521362581    9.18369845104525
C        23.95844076650394    9.27697330037111    8.07128147477508
H        24.83798467168983    9.30732490347658    7.44549476252923
C        23.01968915854951    8.27405126450527    7.89484351138149
H        23.16545449076866    7.52356809048036    7.13199355363683
C        21.89303312428716    8.23046123759671    8.69825729362936
H        21.15605479354242    7.44638459039063    8.56636009322177
C        19.43280660762883   10.71756731505591   10.16815760735042
C        19.27546822622851   10.91136606762320    8.79949174103053
H        19.70231740371158   10.19655995739494    8.10639643914687
C        18.58365405128770   12.01274426931490    8.33222165233354
H        18.46410160583514   12.16303913550394    7.26940792077796
C        18.04101931388311   12.92078680383108    9.22812292085213
H        17.49825367037353   13.77961289663976    8.86213314733179
C        18.18864982812279   12.72532261880783   10.59121764824066
H        17.75926360848745   13.43006426393126   11.28811826291742
C        18.87660475721413   11.62212582929954   11.06431353235156
H        18.98461131525926   11.45868734975911   12.12754348298247
C        21.21481756250090    8.88615540818789   13.12439826163362
C        21.89669208296901    7.71955639502006   12.81624779054301
H        22.11988532915885    7.49400178034116   11.78025108941328
C        22.31839648931750    6.86905950809281   13.82315607445111
H        22.84284530597096    5.96701464137608   13.55352568220475
C        22.05827252353619    7.18538045963450   15.14924736816132
C        21.39838081395154    8.37552051242649   15.45595170547510
H        21.20968878059117    8.61841306684207   16.49001106239399
C        20.97713868154064    9.22093518914345   14.45362121894486
H        20.45295259323868   10.13523223211755   14.68483657497229
C        23.12002459516343    4.64426944594129   15.73993040318951
H        22.34653426871765    4.23697234665695   15.09574821295275
H        23.31641359051888    3.96012657844932   16.55961041382130
H        24.03800559180985    4.83070689109540   15.19003207040486
C        17.40288288884756    5.85433728813059   10.82113516902067
C        18.44858630199226    7.52596003106210    8.86568653077833
C        20.14133372989371    5.98398192422243   10.54989810325207
C        18.89401000781080    7.06004914228598   12.74398041014370
C        17.29784475703727    8.63899165181304   11.11058410261995
Mo       18.71132745124449    7.30665965375197   10.80157063088337
O        20.76956870135247    9.74854382006073   12.14575370216538
O        16.63050274431574    5.01692473438236   10.83507296229469
O        18.24879217962149    7.64684842939810    7.75032974620986
O        20.95934011367121    5.19416074215284   10.45893758715010
O        18.91281429336181    6.84413793251325   13.86240810999282
O        16.48416249188351    9.41486784484423   11.28906179684428
P        20.21682780183648    9.18682378777735   10.73821106290010
S        22.52847347946258    6.17567366095410   16.51458328745139

