50
CSD_code = EWULEN | q = 0 | S = 0 | Stoichiometry = C24H18MoNO5P | MND = 6
C         0.18645926110178    2.75496996796594   12.70341283783556
C         0.70125726000469    1.93209324239149   11.70451610216020
H         1.28509805783451    1.05605285852170   11.96447904431309
C         0.49355390405759    2.23745936799396   10.37240481228671
H         0.89452774085298    1.59258454435638    9.60434972606765
C        -0.21560248381563    3.37566521829112   10.02443010345160
H        -0.37308757570397    3.61575133962959    8.98365225945224
C        -0.71106931576655    4.21020449802788   11.01226442626216
H        -1.25423928555901    5.10400423519888   10.74317201561030
C        -0.50834153544232    3.90594991017237   12.34642278391000
H        -0.89114251284257    4.56235931658734   13.11625287371725
C        -0.84915290481009    3.18370274118016   15.26494508567876
C        -0.72104834587529    4.40892385603542   15.90770010934716
H         0.24376156007675    4.90252515530495   15.93681757218909
C        -1.82095004138408    4.99770614342541   16.50711661432419
H        -1.71600322913055    5.95005841130284   17.00566169722367
C        -3.05215881086922    4.36448540571682   16.46993954366777
H        -3.90861829665340    4.82247334052524   16.94203750911988
C        -3.18500729092144    3.14277997305518   15.82850450498951
H        -4.14559770257595    2.64958328002714   15.79942611282787
C        -2.08998960494589    2.55433369953717   15.22474393497550
H        -2.18464408607602    1.60008998431145   14.72579681767759
C         0.67876936330653    0.01297506922114   15.57879588218688
C         0.74783262437914    0.56636858884178   16.85290849165355
H         0.38330121424713    1.57501004334241   17.00872430496439
C         1.23315344870328   -0.17938352378426   17.91049970050555
H         1.28576487454122    0.26757125564809   18.89268228602861
C         1.65819271427275   -1.48832423203539   17.72545981722386
C         1.56303922324777   -2.04083178437187   16.45297756441036
H         1.88198410471561   -3.06032535608921   16.29131960739667
C         1.08123219871851   -1.30473346466466   15.38882783338092
H         1.02265235354858   -1.74814674930235   14.40376475565353
C         2.22380564925671   -2.28725162059188   18.85918870112836
H         3.31147195370851   -2.31307691130060   18.78829633718453
H         1.86256365421837   -3.31326633673892   18.82759078152972
H         1.95599178176348   -1.84755153219403   19.81656133540614
C         4.63536908231956    3.75454882533480   15.42149242678683
C         2.33082276151507    4.90598529517203   14.34459453361071
C         2.30605551088979    3.55675239832437   16.87297916444377
C         3.39580624112326    1.34649333642129   15.63631964939341
C         3.40498947968968    2.68637118390515   13.20270010503345
H         0.20252691760033    0.29632406139922   13.62695233590644
Mo        2.82668945754301    3.12977623458040   15.02504744468767
N         0.17894619658321    0.78115996662766   14.51958982112523
O         5.69313857384721    4.12039637826122   15.63752385229753
O         2.07627790022680    5.92148741797134   13.89280855105229
O         2.05435499153077    3.77680709141548   17.96205233186788
O         3.84956384024564    0.35543610812070   15.96736388309085
O         3.78775411481153    2.45879146492293   12.15309375755905
P         0.58964501189128    2.41828030200297   14.44503825740334

