45
CSD_code = EWULOX | q = 0 | S = 0 | Stoichiometry = C17H18MoNO7P | MND = 6
C         9.41137042819176   10.12708238068680   13.64078572909290
H        10.12472182308452   10.09401029645195   14.46927150333897
H         8.85326463235414    9.18327629377833   13.61802712277841
C         8.43269177063784   11.29584496038187   13.81878280388411
C         7.56031178468408   11.36012597912153   12.55802432553538
H         6.97630612760220   10.43667787648709   12.45985919581745
H         6.87584397416933   12.21138787003799   12.60474352162963
C         9.20442569237292   12.60366080645862   13.98747588279960
H         9.83971994277499   12.78432907767265   13.12263899094667
H         9.83314988846392   12.56081931002412   14.87364471559373
H         8.51550285532286   13.43883957067001   14.08834341294982
C         7.54891554033805   11.03351049039912   15.03723092443588
H         6.84465274950110   11.85033406692395   15.17151575947640
H         8.15862040378548   10.95416302353297   15.93363325692452
H         6.98615679027214   10.11021349428406   14.91972236783154
C         8.05141970850210    8.68664086601877    9.69814008968688
C         8.08363522522259    7.37556851595597    9.23715040816433
H         8.55519743406292    6.60769675651368    9.83571447176403
C         6.89275137512124    9.33309655921633    7.69618644572063
H         6.43069453359596   10.10568065835404    7.09892722457347
C         6.93103195016190    8.02854643026850    7.22102461891581
C         7.52669861513304    7.05564474557051    8.01424588605392
H         7.56593167922997    6.03376327587986    7.66591262480499
C         7.44279011227245    9.66506290002946    8.92012521711247
H         7.38769011601433   10.68012036475926    9.28616140346878
C         6.36954480839812    7.68358145914623    5.87599583656564
H         5.55083933148381    8.34977927522715    5.61450416367043
H         6.01203535346118    6.65669889101313    5.85511073699544
H         7.14416880299010    7.78674033103759    5.11551798617981
C        12.21745196923471   11.85785162888969    7.98606231863534
C        11.51435883567547   12.60599776104116   10.60745212899892
C        12.29757659591856    9.99771059336695   10.10888866092017
C        10.41730329325322    9.81179426107463    8.06727209483437
C         9.54657388415600   12.39525947673399    8.64949952835840
H         9.14533895766084    8.25149804674368   11.32991610510933
Mo       10.96031587697058   11.21424983388577    9.33694165510792
N         8.60502412281485    9.02356062283297   10.94670217878207
O        10.20875149186346   10.24963757324824   12.46309285362155
O         8.33995804031571   11.55752509378407   11.38248263645847
O        12.95953925806478   12.23190747921832    7.20698927124750
O        11.82056755655070   13.39438324635101   11.36920332727266
O        13.04225886550967    9.28267689968479   10.58961128194066
O        10.17914685772111    9.02120227152676    7.28216571879226
O         8.70394307511104   13.06108882697074    8.27477372333354
P         9.48610786997224   10.48165985875705   11.04432988987796

