84
CSD_code = EWUPUJ | q = 0 | S = 0 | Stoichiometry = C31H48N2O2Zn | MND = 4
Zn       12.94357321130773    8.97756994623673   16.39033421733978
O        11.89694162287173    8.94624734436475   17.84139351665466
O        14.68364882872931    9.53820945809781   16.21347008676359
N        11.82496385794940    9.14037853279256   14.48911528102799
N        13.14919221325481    6.99430856813082   15.76620568464548
C        17.39854562980642    8.99971236451803   13.86448869780414
H        18.15218411767507    9.56568572184797   13.34876821998252
C        11.37453657346723    7.68902397814652   12.46479414943596
H        12.24091056942910    8.06461205033878   11.91867298672101
H        10.51078994752571    8.30470261511084   12.20545296778753
C        16.35494830961560    6.92637004511050   14.31724352586620
H        16.26850887558122    5.85519120019240   14.19217263265828
C        16.58868287166373    9.66335471077489   14.77156795508268
C        17.28956631154273    7.64226771243490   13.58641517371820
C        15.55920144274784    8.93952456803900   15.42470558820561
C        16.81137783602934   11.13772565327108   15.09170677362843
C        14.56845719645771    6.70902018731212   16.04152229077102
H        14.77922403139839    5.64247463836474   15.87150549021513
H        14.73109307318481    6.92140328553072   17.10436204763002
C        11.37814989214086   11.29830249132830   17.81936397056963
C        18.15050621364967    6.92719430500741   12.55544049113417
C        15.51297261560597    7.54553962181217   15.22458309592493
C        11.57921144831762   10.04614892104478   18.63427654431027
H        12.37531176921581   10.22871868917140   19.37820953920722
H        10.65191809462874    9.80587598920964   19.17910890254264
C        12.84221543274092    6.87802863733767   14.33391466131065
H        13.71998682268959    7.26899588363485   13.80602686237427
C        12.60072248578408    5.43892791523180   13.86048770964553
H        11.73344418271153    5.01594847768316   14.36958869786325
H        13.47176196675269    4.82793105595808   14.10309780149977
C        15.57810501811493   11.94919946214582   14.67912644617462
H        15.39496324441381   11.84651164331475   13.61042632538629
H        15.72903801507049   13.00342152412985   14.90549951298798
H        14.71133428327773   11.59272744220892   15.22417328813761
C        18.99975069486242    5.85872127018051   13.25757039986578
H        19.63424790665908    6.32154080919905   14.01021274414187
H        19.63380175436726    5.34512194249811   12.53716029054246
H        18.37436494018259    5.11916858248434   13.75010571631066
C        11.63799020578908    7.76679061086349   13.97507115614438
H        10.76183123849615    7.36777569549156   14.49771537369015
C        12.34482222552596    5.39691432875803   12.35877315316460
H        13.21697549133443    5.77792930642069   11.82308723090530
H        12.18025826888850    4.36539384271250   12.04218896605729
C        12.31668480753611    6.15673917530990   16.62674361367232
H        12.44615235216715    6.48218342958023   17.65657571428616
H        12.58371812113349    5.09716039623135   16.54851533604083
H        11.26794757462136    6.29016062432452   16.37587905500790
C        12.48083569719562   11.91167780618359   17.23152160134473
H        13.47192448989602   11.53259460158058   17.44262391796105
C        12.63183063627270    9.98797275042071   13.61180781813120
H        12.82078191130148   10.93047629152317   14.12164180624682
H        12.12260541367691   10.20611978331166   12.66741620640913
H        13.59145924482379    9.51707189540210   13.41141955361157
C        11.12701120584001    6.24963204488960   12.02628026030625
H        10.24812367628880    5.84956266049317   12.53687988801214
H        10.93054404033902    6.22442184828920   10.95292636537321
C        17.23580594948425    6.26004394037959   11.51716532808498
H        16.57908366867453    5.52888733573662   11.98112785693905
H        17.82998055154513    5.75101676503500   10.76061010837931
H        16.61936165862136    7.00979882733501   11.02448435286896
C        18.03018223821373   11.73629709360002   14.38123279903556
H        18.93989488308523   11.19854777342395   14.63828456746790
H        18.15229400938646   12.77075018626571   14.69790840479730
H        17.90394555869846   11.73220790901326   13.30049956390880
C        10.11286953619712   11.82111761256839   17.58465042435369
H         9.25111873474272   11.35570365835815   18.04149117310276
C        10.53083979457535    9.78210170328646   14.71014244279678
H         9.97847819976997    9.23830255872073   15.47311015445183
H         9.93528724393876    9.82598112190881   13.79089803828298
H        10.68777751351100   10.79667889935108   15.06886856055700
C         9.94858713466966   12.93047235104231   16.77161548862237
H         8.95922691751469   13.32900429939751   16.59710604389775
C        17.03568910661284   11.27566541450520   16.60364031791991
H        16.18933996302903   10.86464208824935   17.14430329711071
H        17.15415102992225   12.32291419462194   16.87603338017899
H        17.93233968325708   10.73477967087907   16.89997115402324
C        19.09598350309900    7.87434296791418   11.81188969175251
H        18.54098944076701    8.65371549782636   11.29466848807220
H        19.66246738412280    7.31427380465093   11.06990545712106
H        19.80411125855772    8.33558215973043   12.49586365131743
C        12.31671288244604   13.01882838401821   16.41624206845312
H        13.17901621956869   13.49503160576073   15.97267332304316
C        11.04943641849977   13.52837057729309   16.18160011510587
H        10.92167961499187   14.39385726316558   15.54737644612450

