107
CSD_code = EWUSAS | q = 0 | S = 0 | Stoichiometry = C54H16Br8F20FeN8 | MND = 6
Fe       15.22992897366291    9.54257457815147    3.37289499604964
N        15.48124668834690   11.46109777228804    3.63574987092016
N        13.27951707894105    9.79433713179971    3.28741006973521
N        14.97893898336694    7.58314107270157    3.40735067643526
N        17.16118795192351    9.29972758241813    3.15710849843857
C        16.67380446892615   12.07221103452324    3.87204316210925
C        14.49739119609619   12.34705511671240    3.95533090353689
C        12.66948664444261   10.99144590154337    3.07164175005312
C        12.38487911736752    8.81699422711484    2.97471688792206
C        13.80004480797125    6.96840135753312    3.69765905961614
C        15.97632319706860    6.69214927818904    3.65655347542093
C        17.77136303032831    8.12544099637417    2.84041143030525
C        18.04557196368773   10.30183873082259    2.89969666224423
C        16.43906708229858   13.33073208585098    4.52634805341428
C        15.08534783667782   13.50016739499964    4.58027438071701
C        11.39616043128039   10.76693258156998    2.44685018590343
C        11.21748144834598    9.41381438627433    2.38976571464696
C        14.06719139656372    5.69123665608771    4.29734973082988
C        15.42157777711714    5.51995340097203    4.27508207192385
C        19.03160382217092    8.40186897798796    2.20622205383158
C        19.19994187887339    9.75574747144957    2.23728453754888
C        13.17349837858136   12.20243335052733    3.54440804263206
C        12.55626985782657    7.47979728115678    3.33108932860806
C        17.29122492701843    6.87673528668647    3.23292216674916
C        17.88879491875106   11.60212090685619    3.37396507265388
Br       17.66779175461004   14.51398151582572    5.30594608385738
Br       14.24692330481537   14.93739987603577    5.44654416052312
Br       10.22117943574828   12.01079448713329    1.67480947153233
Br        9.76321726795181    8.58213130639686    1.54431508585771
Br       12.87517820528043    4.50963306872931    5.13672163373713
Br       16.30520876401753    4.07780824902771    5.08621409152767
Br       20.20505914265094    7.22255926383849    1.34193049287380
Br       20.63055393838309   10.64345065994126    1.41200908115634
C        12.27321205783429   13.37460454009154    3.59739620973460
C        12.43606318824489   14.43957837124306    2.71640692093878
C        11.59660242900809   15.54521112529734    2.75101741600931
C        10.57206655608993   15.59647470194459    3.69384829595669
C        10.39084712651306   14.54129302466587    4.58512539343316
C        11.23760362620423   13.44109656447320    4.52476324849810
C        11.37987310738849    6.58542812275082    3.33563090756759
C        11.25687617156361    5.55089982390963    2.41185595693376
C        10.14654669545783    4.71507636225596    2.40747821111524
C         9.13909967451177    4.90557984608430    3.35074907225162
C         9.24758460063351    5.92862514549866    4.29012150337748
C        10.36155675617511    6.75733188426483    4.26901294397862
C        18.20878835817267    5.71836578412896    3.21883574520834
C        18.02054073620209    4.66017752515703    2.33338795656224
C        18.88333926188240    3.57088566598296    2.31518085143931
C        19.95240556237073    3.52663458083898    3.20713191564251
C        20.15367582812241    4.57115322555938    4.10671505462719
C        19.28550062014331    5.65565030814517    4.10011983743464
C        19.03839527143958   12.53147114023447    3.32298188638216
C        19.04216906155142   13.59468382599401    2.42448842955184
C        20.10956795222923   14.48056274282454    2.35398294848371
C        21.19746073691169   14.30961682484421    3.20708757969570
C        21.21238942595517   13.25402095456425    4.11612342446864
C        20.13787807995526   12.37358253024111    4.16214288695227
F        13.41357610878069   14.37557307386193    1.80349715600255
F        11.76435753042849   16.54647585643374    1.89076156242561
F         9.76492789177420   16.65101571345124    3.74016072013572
F         9.41235594412302   14.58939183842451    5.48539993132185
F        11.06845455105947   12.42624371577391    5.37834777032570
F        12.22340678294744    5.37312793353367    1.50764165964725
F        10.04223340834976    3.73829484953860    1.51039917842998
F         8.07536937446130    4.10897013624660    3.35672062495969
F         8.29235573720616    6.10582577052630    5.19990662365450
F        10.48090399268854    7.73246877316653    5.17964699555842
F        16.99276635066806    4.70355652796465    1.48128898919003
F        18.69155734729285    2.57385713430625    1.45490075848262
F        20.77963904150443    2.48621831436916    3.20157173859320
F        21.16992384868374    4.52609392685542    4.96478466120653
F        19.47188671038063    6.65824207998239    4.96456655913674
F        17.99468214172965   13.75069283987435    1.60549262922552
F        20.09615686951459   15.48469573958130    1.48030788891639
F        22.22253508005754   15.15380337423594    3.15261823721555
F        22.25090170270254   13.09283007149679    4.93179646123468
F        20.14911759225581   11.35953665852382    5.03031884270632
N        15.10473740392736    9.72166406070899    1.37812355073577
N        14.66372945696319   10.65536420215884   -0.55973598921294
C        15.07657594342452   10.85275165098987    0.70007376376957
H        15.35528671257329   11.81108807082308    1.08949376540664
C        14.41138523427013    9.32378814782934   -0.69208265000819
H        14.06547768447354    8.89272209110960   -1.60854453007168
C        14.69338906352190    8.75309440336253    0.51398637970495
H        14.63257913846002    7.72691310187713    0.81168542748125
C        14.41832410586357   11.68353245339187   -1.54187172709113
H        14.45956697799701   11.22648314687269   -2.53281707625323
H        15.20792080048605   12.43474756029503   -1.46486442340919
C        13.05657117463864   12.33347112868247   -1.31226101643840
H        12.87135976155804   13.08025125288794   -2.07817031882811
H        12.26356367008173   11.59049941283774   -1.35403745994109
H        13.02873424645579   12.82217090430949   -0.34209400746296
N        15.23929973620372    9.32370104013943    5.36984949577760
N        14.47150525407906    8.76341396477338    7.34955457656371
C        14.16679342032648    9.23466532715755    6.13223025959864
H        13.17608674576105    9.50968619657854    5.83183118185431
C        15.81413324522386    8.53661356905018    7.36366625651639
H        16.32373310667138    8.15448196125101    8.22363042014647
C        16.28157531763737    8.89242436556726    6.13284078998227
H        17.28284189705827    8.87092308941689    5.75510239924600
C        13.52931857118424    8.44879029859432    8.39620090846021
H        12.77962103616770    9.24247034462522    8.44156876568101
H        14.07028000168382    8.41871007541438    9.34422212344405
C        12.85245692416527    7.10758980447562    8.12766552419648
H        12.17480840151797    6.86768222503086    8.94119823320978
H        12.27994189222735    7.14920167962215    7.20487776490608
H        13.59059651310858    6.31317253351022    8.04704514411755

