39
CSD_code = EWUVIC | q = 0 | S = 0 | Stoichiometry = C8H18N4NiO8 | MND = 6
Ni       -0.43892622375506    6.09817301283948    3.98437493406491
N         1.88773091215623    2.80816856623944    3.60883184023675
C         3.16619174203351    2.19544270967799    3.39178834051568
H         3.89638547505015    2.99255842015846    3.26315363093950
H         3.14687247423668    1.57219742773237    2.49442388074044
H         3.44768221236354    1.57955697771741    4.24933172036283
C         1.66166428737126    4.13861011023782    3.63614305235732
O         2.52359438583282    5.00261094936458    3.47808156444369
N         0.32558705333426    4.38381048708592    3.86684493647452
C        -0.32955666999443    3.22291464030648    3.99152599018668
O        -1.53037583870301    3.08130128615628    4.20279304218292
C         0.67107561172589    2.08431183457678    3.82643003924538
H         0.70682039320084    1.46349478119879    4.72791546705868
H         0.40162454133636    1.44987859382874    2.97534216665846
O        -1.69617462555925    5.41417204532041    5.73196398286668
H        -2.50859793412171    5.92000601075569    5.55091179829088
H        -1.87905022817082    4.49600551624798    5.47200834242271
O         1.33495531989303    6.80961493338133    5.19338042157934
H         1.41629388894160    7.72261944344978    4.87154514482449
H         2.03953619445835    6.29808637369272    4.75719903938268
N        -2.76588741380058    9.38795266608780    4.35940399517437
C        -4.04469069071468   10.00043210783965    4.57513442177501
H        -4.77522919128968    9.20315165851557    4.70079994865171
H        -4.02706781098385   10.62188105885506    5.47379188808890
H        -4.32434575154311   10.61804185198583    3.71824985053225
C        -2.53961524908817    8.05758668679952    4.33201433586972
O        -3.40146384353009    7.19343737742438    4.48996755435365
N        -1.20345446097671    7.81255464419433    4.10175200213187
C        -0.54845761784042    8.97352419686966    3.97731847458726
O         0.65263100086488    9.11529890536850    3.76752250953265
C        -1.54960155060708   10.11198509138096    4.14019851431908
H        -1.58576035898567   10.73014786676341    3.23677077491992
H        -1.28059204586879   10.74914741740654    4.98935135418744
O         0.81835023920395    6.78337026949756    2.23722633684872
H         1.63068516723430    6.27698182525737    2.41698908620875
H         1.00166132517732    7.70105521167607    2.49884541980162
O        -2.21259910367086    5.38593158608774    2.77524142132580
H        -2.29422536216789    4.47371894479438    3.09943616159620
H        -2.91707025304268    5.89816651322704    3.21099661526217

