151
CSD_code = EWUXAW | q = 0 | S = 0 | Stoichiometry = C60H80Cl2N8Ni | MND = 6
Ni        3.49720147480321    3.12889157352327   12.84939016623007
Cl        2.21436914374646    4.96348010643633   13.00260775486212
N         3.25929491958930    3.12343688331357   10.55081482501135
N         2.07448768474231    3.38412885776159    8.71563670376820
N         5.01398030372269    4.19207052113658   12.74510161405880
N         6.23073108234659    5.98545816550734   12.42543187456872
C         2.40954806159372    3.89343742957828    9.92199306324197
H         2.00083590858165    4.80624558824290   10.30969672948824
C         3.50098692078088    2.07059795535334    9.72245839929696
H         4.17717337047069    1.28946168961150   10.00881137560350
C         2.77106111344188    2.21261263203921    8.58051492450222
H         2.69009186841823    1.60842920337513    7.70000092742247
C         1.17210325464092    3.94522699695618    7.78329878180408
C         1.56880946268753    5.06164969853628    7.04131153007128
C         0.66549052227472    5.60085316993664    6.13576267617477
H         0.94318230538319    6.46680847914245    5.55505297293248
C        -0.58672702323408    5.04228602358296    5.96582241358124
H        -1.27522566570569    5.47083050863723    5.25262055018922
C        -0.96294035785757    3.94077178931236    6.70998595778142
H        -1.94649429999949    3.51863463137876    6.57222818979081
C        -0.09617778967058    3.37680739995965    7.63620486289927
C         2.93556158978396    5.68079962685028    7.22056479424974
H         3.53064444651726    5.04964775809052    7.88722969546316
C         2.80394754366081    7.06064662436815    7.87021248461853
H         3.78764393595477    7.49901157781794    8.02147305444724
H         2.31018849189951    6.98259821616961    8.83612394333943
H         2.22074858602509    7.72899393704627    7.24115930961572
C         3.68186614894225    5.77384674220909    5.88814117052074
H         4.69547134398908    6.13007500796390    6.05757823828908
H         3.18882812564509    6.46127006739761    5.20580053045916
H         3.73481875260305    4.79628989920277    5.41346249921783
C        -0.53372910738101    2.19322082962598    8.46828052736092
H         0.27424675538120    1.91072411053728    9.14967671870532
C        -0.83975106565534    0.98876941829791    7.57507172165105
H         0.02715045355815    0.73316087948565    6.96945815769547
H        -1.67185699478827    1.19980240343255    6.90795903898463
H        -1.09831852380613    0.12632146923602    8.18523956456459
C        -1.74857190830735    2.56235195936926    9.32247974777946
H        -1.51458401573372    3.40329655070833    9.97110668979616
H        -2.03558810559921    1.71753700337372    9.94445944180568
H        -2.59829268593908    2.83289212796402    8.70085159464086
C         5.03870042288076    5.39731617885930   12.22608643920995
H         4.22109656886615    5.88057045480351   11.72893547155092
C         6.24138491354842    3.98081938268672   13.29319495471663
H         6.49998739738598    3.05121965641395   13.75924257261244
C         7.00829864099300    5.08943106106210   13.10368593555491
H         8.02014593460103    5.30947606581559   13.37730083997143
C         6.56527577490071    7.32382349036475   12.10034100177430
C         6.12090539703719    8.34428358621830   12.94736366579566
C         6.48498625487155    9.64633232442945   12.63206360541479
H         6.17600121047251   10.45938122441990   13.26859537796134
C         7.23661525679936    9.91816382395097   11.50408071422889
H         7.50538938882776   10.93845561472762   11.27300882187199
C         7.63980038215368    8.89682396387865   10.66460984503115
H         8.21130506116278    9.13219495349556    9.78132977004219
C         7.31734200915257    7.57744148789093   10.95164512426746
C         5.29944103498275    8.01873882212551   14.17481465500854
H         4.70028920486415    7.12637113308761   13.96944895611298
C         6.23323628423849    7.70717886312232   15.34988621164887
H         5.64784595985557    7.45564161680699   16.23109394470420
H         6.85659853852451    8.57026228385501   15.57820878592274
H         6.87979890145454    6.86396027282651   15.11775854077018
C         4.32586075931024    9.13351220945209   14.55367051200461
H         3.63274515089938    8.76438389227511   15.30545398732085
H         3.74963604664228    9.44756710868050   13.68691874550179
H         4.84441675357095    9.99550406737466   14.96769503359927
C         7.70226061886685    6.44106215693939   10.03193951130097
H         7.78207371757860    5.52302401103529   10.62296638120822
C         9.04467789752776    6.66191759585975    9.33587174460315
H         9.35227063789503    5.74518549670619    8.83788171033584
H         9.81171481948471    6.93546186941997   10.05717740978474
H         8.97736743213063    7.44366005407689    8.58331701988091
C         6.58831177935749    6.23961879385850    8.99839985142410
H         6.84745516255658    5.42760841909832    8.32274313784258
H         6.44774718476446    7.14820734440545    8.41547392583908
H         5.65013808860664    5.99109554988447    9.48929027276976
Cl        4.77963463831492    1.29399995534969   12.69599942671763
N         3.73473766964107    3.13376709210157   15.14801642081382
N         4.91947189226212    2.87341688261149   16.98329243132855
N         1.97969851948180    2.06544230423712   12.95369659812205
N         0.76292971282951    0.27199976202609   13.27343540263489
C         4.58442392026573    2.36386120017605   15.77704069379289
H         4.99319008461960    1.45096749153288   15.38959383719502
C         3.49298528733662    4.18673082381190   15.97619725061401
H         2.81677396350720    4.96777739642804   15.68966275719677
C         4.22291317841762    4.04497068890722   17.11817699327770
H         4.30389252934060    4.64941505245397   17.99850497443443
C         5.82176019425290    2.31223421126502   17.91566565051274
C         5.42486392622721    1.19585278995979   18.65761108387514
C         6.32813471494979    0.65643071802582   19.56307589600417
H         6.05031900619048   -0.20950706400002   20.14375506706528
C         7.58049279610766    1.21472421129438   19.73291462365536
H         8.26897913513688    0.78596158512080   20.44599764904989
C         7.95689594771290    2.31619569126727   18.98877289798977
H         8.94056329841475    2.73809722929468   19.12645701595963
C         7.09016730305637    2.88038495999541   18.06265640001289
C         4.05803341111961    0.57692164435958   18.47820922853296
H         3.46314584042106    1.20817125344343   17.81147658478821
C         4.18951564929483   -0.80292061090711   17.82851397669399
H         3.20577778203760   -1.24118150882643   17.67721355618744
H         4.68331172515963   -0.72489716709256   16.86261420511796
H         4.77263118863999   -1.47133815526764   18.45756253365956
C         3.31147928272671    0.48400353057197   19.81049844708529
H         2.29782718403063    0.12802405646062   19.64082050131375
H         3.80422280774854   -0.20357342515017   20.49289183591826
H         3.25864397985434    1.46155398292976   20.28521629187539
C         7.52782193612669    4.06383988917938   17.23044558400619
H         6.71979654127589    4.34637431065191   16.54911911600257
C         7.83413995352814    5.26838511855809   18.12342195425395
H         6.96733324686192    5.52424478166278   18.72906145180248
H         8.66627303326368    5.05734267407479   18.79049777569552
H         8.09278375855299    6.13068497490159   17.51307002299972
C         8.74247469172992    3.69440994009759   16.37611275755484
H         8.50819480578107    2.85349316211023   15.72755818718807
H         9.02957784346857    4.53913426439453   15.75405131751702
H         9.59222837972306    3.42370514281179   16.99762665778375
C         1.95482655344803    0.86030877698511   13.47306225834096
H         2.77236309802769    0.37739807868249   13.97064505571930
C         0.75238380201691    2.27640468969182   12.40514777496788
H         0.49393368952515    3.20587160062661   11.93875333629492
C        -0.01447755064757    1.16775836116390   12.59463803519142
H        -1.02618179090242    0.94742913289992   12.32070509228905
C         0.42830032120729   -1.06626421342670   13.59880246358872
C         0.87269668985448   -2.08690047386143   12.75201777446344
C         0.50861997726527   -3.38887746663340   13.06762115304301
H         0.81762735053344   -4.20209286551199   12.43130402789270
C        -0.24299646892114   -3.66041920974587   14.19569160721793
H        -0.51178499142797   -4.68065367679380   14.42700677309064
C        -0.64624347867432   -2.63888010204427   15.03490186591627
H        -1.21779674942753   -2.87403141441424   15.91821337706648
C        -0.32380969424994   -1.31956602148107   14.74753071920656
C         1.69437870745893   -1.76148456768592   11.52467795922162
H         2.29346372200817   -0.86908096493133   11.73011580798843
C         0.76088131127230   -1.44999728867859   10.34935231112447
H         1.34652998392622   -1.19859469807857    9.46828021045360
H         0.13749318471603   -2.31303936082630   10.12094081086105
H         0.11434294387636   -0.60668721974646   10.58121303043293
C         2.66810725100701   -2.87623603864909   11.14615490650513
H         3.36138899504162   -2.50711445373374   10.39451883499251
H         3.24413721323161   -3.19015533960449   12.01308485123960
H         2.14971459724833   -3.73830519412718   10.73208621905640
C        -0.70871444668460   -0.18287995855504   15.66686151684306
H        -0.78834829566446    0.73497894992454   15.07553249648613
C        -2.05125159748132   -0.40332468109428   16.36281763508436
H        -2.35878102258791    0.51363065794924   16.86043878169054
H        -2.81822260073621   -0.67700011108100   15.64149242257997
H        -1.98415901630202   -1.18481946333800   17.11564702113886
C         0.40514206075873    0.01876246962885   16.70046113200731
H         0.14598208171831    0.83095268379585   17.37589535498055
H         0.54561854044721   -0.88968920443141   17.28361998576535
H         1.34336825563452    0.26712740359229   16.20959264722303

