71
CSD_code = EWUZAY | q = 0 | S = 0 | Stoichiometry = C32H30Cl2N6Zn | MND = 4
C         2.23151217743398    5.66101411538805   12.65336422843590
C         2.84024611553811    4.70453250644702    9.25484722297881
C         3.26055020882907    5.59029153449864    8.28219091651419
C         3.50534540071189    6.93422786600684    8.56346962047009
C         3.32935941178395    7.44091984647918    9.83227490711748
C         2.90962090080846    6.56111719817585   10.82224450046660
C         2.67113334033327    5.19601545324307   10.54252153822003
C         1.82513633232285    5.39617862828189   14.01026005550392
C         1.45039877159268    6.38193145515856   14.91793703820695
C         1.16370244243747    6.04030535595526   16.22593465122587
C         1.24491156774306    4.71556743532217   16.63192326823193
C         1.57290396353189    3.72088706675840   15.73005584341810
C         1.84009444212769    4.04658056300994   14.40502839516535
C         1.82830885277423    3.29843002445878   12.07210914431909
C         0.30800384226745    3.20346166246464   11.84241701018381
C         2.56864401109708    2.23838921256573   11.25644880261185
C         4.59050644662675    6.59547016237499   15.21976893740963
C         3.97262573664294    7.85116258984080   18.51768410163236
C         3.49262259051449    9.12193789232959   18.76677395685369
C         3.18636630980860   10.01075380897219   17.73650763134048
C         3.35821661215594    9.65839692051569   16.41594031128908
C         3.83747701742445    8.38186414333610   16.14949365278859
C         4.13880912791879    7.47501877145165   17.19136066682396
C         5.03247066667896    5.58753891801514   14.28973019630218
C         5.37387896295816    5.84516074177249   12.96570225653850
C         5.69823224657077    4.79937588413398   12.12256281074506
C         5.68765138849989    3.49520305858054   12.59729839413227
C         5.39356308793055    3.22931887465993   13.92138320092338
C         5.08954313512584    4.27362043274146   14.78750540459769
C         5.09983472423415    5.08326074261390   17.09983515314906
C         6.61909013028808    5.22019005389814   17.31483600888275
C         4.39933810781075    4.69398059275164   18.40167792102816
H         2.64877383462019    3.67747029348060    8.99510576934453
H         3.39789717094469    5.23009931887435    7.27346525080612
H         3.83167870696329    7.58749665079241    7.76926572087307
H         3.51298354373737    8.47703398142464   10.06344976300064
H         1.36225516778057    7.40476823169075   14.58884162688729
H         0.87657254633446    6.80773710309149   16.92768089535912
H         1.01597924626429    4.44876135317097   17.65400984610803
H         1.60861508940494    2.68632378996118   16.04092921200725
H         2.07652996661092    2.13623950708655   13.77973437952472
H         4.21050342944262    7.19918221269991   19.34068711334251
H         3.35636036436797    9.43614059523962   19.79089927604024
H         2.81481087099861   10.99347185255873   17.98191614432142
H         3.12750700789719   10.33511023362571   15.61000115635714
H         5.40652559645472    6.86281846730603   12.61128426064630
H         5.95934236208762    5.00242142793643   11.09571684985423
H         5.94576995944786    2.67842663863205   11.93813267913039
H         5.41275584486662    2.21583323349168   14.29645692889722
H         4.93529445080869    3.11656268482877   16.44104811144571
H        -0.21032553066295    3.90108936226519   12.49751569786441
H        -0.04237699609587    2.19557105120329   12.05226361064702
H         0.06963178443905    3.45319845795115   10.81169182110566
H         2.13523665353316    2.13420162710002   10.26762347586713
H         2.48744761736251    1.27676488810020   11.75802856586344
H         3.61965737665808    2.49869201081306   11.17196947808038
H         6.82835646566593    6.05176825676539   17.98286472364339
H         7.02179536759082    4.30792567050219   17.74871426705434
H         7.11301771414154    5.40655478867865   16.36309596733597
H         3.33572574115525    4.90170634933024   18.33012713222108
H         4.82194970276083    5.22735957757626   19.24631445850150
H         4.53489206174544    3.62952670890096   18.57901615735613
N         2.63637646152021    6.80404947172888   12.14453278355555
N         2.26410757952088    4.64640328397262   11.74029288555385
N         2.17206528940979    3.09157461634325   13.46924710115955
N         4.12049901500563    7.79213424765668   14.94360702592958
N         4.59305095233276    6.33584285894192   16.56014921777263
N         4.78925232100147    4.06022517935686   16.11497414164834
Cl        1.52431706906127    9.73150236231828   13.51445587800406
Cl        5.09486848291884    9.35659687130597   12.06654245800772
Zn        3.34090163925831    8.52491127103068   13.13156042152348

