27
CSD_code = EXAHER | q = -1 | S = 0 | Stoichiometry = C7H3F15NPt(1-) | MND = 6
Pt       -3.28116839590154   -2.75818654133175    3.27275868357224
F        -0.94453058902731   -1.64958276705603    4.49844481234362
F        -2.49047458008739   -0.17777811963317    4.48818125648197
F        -1.33194137814612   -0.51674542324633    2.70849077579773
F        -5.35770355617796   -1.61162578111822    4.95967271218730
F        -6.09881353662501   -1.92252549772788    2.96287290909652
F        -4.85214320202479   -0.24043770311350    3.38192578693071
F        -3.86329096576135   -5.51017566903616    3.81058523498877
F        -4.71450778911955   -5.04180173544590    1.88995881520638
F        -5.69457880563033   -4.41747746501794    3.69881122963557
F        -1.07327522923564   -4.58207840542117    3.99901879391315
F        -0.50979094976217   -3.31721673615475    2.35544760476789
F        -1.79638654896914   -4.99645832271770    2.01659078150972
F        -3.43715344732904   -0.91734842264847    1.11449469654842
F        -4.61028086845627   -2.65931581871562    0.75522611487607
F        -2.49057886601036   -2.73419170236417    0.51342482675064
N        -3.13769864226495   -3.23955541440506    5.31619161902131
C        -1.96600849854190   -1.16526549974186    3.71054553832605
C        -4.97905712345554   -1.56670569381234    3.64594459472363
C        -4.47234205535108   -4.49597950634889    3.10216625767326
C        -1.58304371248912   -3.96648285890891    2.87724141195119
C        -3.45603540936529   -2.25001402429878    1.31562635875172
C        -2.67915478202393   -3.79759670431262    6.20398780266155
C        -2.10980328646368   -4.48565205263533    7.31136395628885
H        -1.18005411716117   -4.94409939252231    6.97309026273626
H        -2.79830976211698   -5.25851009806534    7.65072891709077
H        -1.90537390250308   -3.78309264419931    8.11810824616916

