73
CSD_code = EXAXIL | q = 0 | S = 0 | Stoichiometry = C37H31AgO2P2 | MND = 4
Ag       -2.72038594396869    1.93063775294757   10.20978401817197
P        -0.77530134114536    1.27612539697632    8.60293367239694
P        -2.32033971672594    4.35206429590089   10.52084566035096
O        -3.21454882262546    0.00620562633208   11.48135271565223
O        -4.65200937879709    0.60848432212460    9.91773486772818
C         0.66888908242000    1.42329001992894    9.70904173896039
C         1.97247674280356    1.65609766999932    9.28321805469720
H         2.19059391749016    1.75915281038566    8.22913882322346
C         2.99247366825259    1.76654979846309   10.21230210093484
H         4.00312239473909    1.94985948335815    9.87597551623219
C         2.72376452415908    1.64189750533084   11.56522750012857
H         3.52365447543471    1.73407175647162   12.28518337422246
C         1.42883198798554    1.39677359127797   11.99399125010546
H         1.21642444636209    1.29460141847363   13.04757690742071
C         0.40667059044657    1.28871916374975   11.07078187810728
H        -0.61251275282509    1.09112253739168   11.40011259513213
C        -0.79090739674990   -0.52182951784992    8.29433633527396
C        -2.02768523822826   -1.14254493187651    8.15430480069523
H        -2.93263850929952   -0.55469509466371    8.24439400056212
C        -2.09584530783841   -2.50326496774495    7.91434962997696
H        -3.05752088790385   -2.98348020244608    7.81047451184761
C        -0.93195860577657   -3.24753847703118    7.81661363760424
H        -0.98431650507749   -4.31121736096508    7.63580122988221
C         0.30171585982233   -2.63092361585022    7.95681230201841
H         1.20842738026855   -3.21406821216018    7.88345846049720
C         0.37713108484244   -1.27125216407580    8.19480121731710
H         1.33921112981389   -0.79118730599077    8.30912762209953
C        -0.13845194476068    1.91312530417574    7.01691835162227
C         0.39696612788276    3.19894386797859    6.97583166530686
H         0.49220713883771    3.76706624920258    7.89109411142711
C         0.80822805302690    3.74892081253339    5.77805508451285
H         1.23387565130004    4.74165764082939    5.76128621709422
C         0.66853934291412    3.03057823660593    4.60117074955937
H         0.98808859159155    3.46061562534675    3.66348604978974
C         0.11263862770240    1.76249641717903    4.63016959756693
H        -0.00484115156030    1.20336026630919    3.71326788547778
C        -0.29419238540981    1.20544394218554    5.82923646597655
H        -0.72975948048449    0.21622906278388    5.84699052752622
C        -2.01223629398048    5.01927694659783    8.85171331828903
C        -1.19851039627754    6.11326541193382    8.58162283487393
H        -0.66443662181201    6.60541549495622    9.38278406541174
C        -1.05760223435809    6.56063282134513    7.27974968832601
H        -0.42157145532317    7.40932087889928    7.07261151414085
C        -1.72633428726869    5.92725532679290    6.24545649625339
H        -1.60920463887795    6.27920788198974    5.23133538039303
C        -2.54230874148612    4.83928288247482    6.51074712516302
H        -3.06083741732468    4.34123811330355    5.70537218760786
C        -2.68374781227289    4.38728894457395    7.80838385688079
H        -3.31863154659646    3.53151353993141    8.02832142542732
C        -0.93786222417155    5.00380621045392   11.50292807368873
C         0.35984292123214    4.73626214532415   11.07042151699053
H         0.51059496572857    4.23079153183927   10.12607709758554
C         1.44392234232256    5.10674445003004   11.84083598514926
H         2.44528557483034    4.89820203874195   11.49375582367469
C         1.24369905470812    5.73512946040286   13.06012724590132
H         2.09050293929006    6.02463072411726   13.66443721951693
C        -0.04378867229381    5.98150246294872   13.50776348844125
H        -0.20087302837727    6.46031032597839   14.46328264604210
C        -1.13309128510123    5.61077098205865   12.73976542990833
H        -2.13716555466838    5.79186036670743   13.09788846087242
C        -3.72962680473908    5.40747358320162   10.99399276665477
C        -3.63933703709488    6.79666796353307   11.01532648234268
H        -2.70246812825016    7.27950952582808   10.77477411138074
C        -4.74803426332317    7.55118756920304   11.34772694264216
H        -4.67799360955490    8.62908084825226   11.36803406273548
C        -5.94967841533872    6.92885590018309   11.65178092756563
H        -6.81294092345118    7.52434035976904   11.90979314960478
C        -6.04514929008586    5.54782310301540   11.62128530551831
H        -6.98194652424916    5.06352991855345   11.85321368341164
C        -4.93720930643731    4.78680005008874   11.29176325753220
H        -5.00039225504568    3.70353291727693   11.26153131727347
C        -4.25675513618580   -0.13877351807692   10.82701659366476
H        -4.89382934314749   -1.01992588588982   11.07069939204173

