89
CSD_code = EXAZOS | q = 0 | S = 0 | Stoichiometry = C46H34N4NiO4 | MND = 6
Ni       27.54906738874562    1.06590348871875   13.65031599118003
O        26.13335956472314    0.24475458102328   12.44297308997346
O        28.65153861309651    1.64343659813812   15.56153561776907
O        29.40782795951532    1.57354468935299   12.85772353469486
O        25.84152555857456    1.15796550381398   15.19034070533781
N        28.15478075174324   -0.59889278538092   14.10949855810120
N        29.89150933961796   -1.71049660103729   15.22197877594468
N        26.94247626465968    2.76096092639367   13.27268211309542
N        25.26479450003509    4.35007435725987   13.64131250405073
C        25.99192413528935   -0.97562545231902   12.14345009876005
C        24.92997430071923   -1.31678508712060   11.23417080892959
H        24.34256548154625   -0.49483499480199   10.85180573630850
C        24.68354030556342   -2.59339413382233   10.87575606187871
H        23.87719411233815   -2.82564324907176   10.19310148104837
C        25.47361260274094   -3.66988784897795   11.36777652405717
C        25.20090720376241   -4.98462045052349   10.96237039491304
H        24.37678879860988   -5.15545869931385   10.28385555271553
C        25.96193171588033   -6.03422431994635   11.40901502363503
H        25.74854423310818   -7.04450335045422   11.09321197823762
C        27.02496039726497   -5.78011354908300   12.27436944434332
H        27.63638480811901   -6.59973893747939   12.62352689554606
C        27.30734020877470   -4.49977510448205   12.68589606221165
H        28.14757742877451   -4.35665636830113   13.34674385659374
C        26.54202139871227   -3.40112095106117   12.25793095903173
C        26.79527220342938   -2.03961364109234   12.67238897495999
C        27.80279811291883   -1.76035173018033   13.60600910792426
H        28.36923841310186   -2.60025654635845   14.00010003151160
C        29.19169938757064   -0.59810406442270   15.03609965220824
C        30.89953161839735   -1.71807677087959   16.07631020718522
H        31.42355336896905   -2.66031465710083   16.16062511444561
C        31.27253872191471   -0.61096429628110   16.81186891482339
H        32.10846917749593   -0.64899182665661   17.49162959952615
C        30.53781377030443    0.56037565727242   16.66222625559007
H        30.79577676575926    1.43226588727409   17.24329642732990
C        29.47764546842416    0.58115553416268   15.77318512240815
C        29.00322734363535    2.89679231258519   16.11381197734875
H        28.33567594023321    3.61568520131571   15.62344951890547
H        30.03526256902731    3.15563525116268   15.84016921992274
C        28.81302090031422    2.98042734735360   17.60921931053832
C        29.46841853353414    3.96448209684467   18.33879802461604
H        30.12572078842975    4.65591401199067   17.83087496403415
C        29.28261937363557    4.05973053673151   19.70608917843254
H        29.79635809366587    4.82762543964171   20.26501975137616
C        28.44450439204060    3.17029087582165   20.35796404963237
H        28.30364710168694    3.24288315230135   21.42590971876304
C        27.79003396201265    2.18755935197303   19.63589766294818
H        27.13704286500248    1.48999157750823   20.13970053387509
C        27.97071108275849    2.09536596998572   18.26726474309175
H        27.46501171036462    1.32718273574317   17.70191653684458
C        29.62072895414568    2.51164772420315   12.04411335156006
C        30.94357841096383    2.63801733758222   11.48725609413786
H        31.67143617902068    1.91010754527640   11.81470257147314
C        31.25200316262463    3.59861441343892   10.59195880169662
H        32.25171572717692    3.66730285771210   10.18419954634025
C        30.27802354998089    4.53182899059588   10.13448402471040
C        30.61093225033892    5.48500707234470    9.16166309794075
H        31.62394898407855    5.50795948835981    8.78470339134652
C        29.67280782105533    6.36663439253811    8.68730743187727
H        29.93422241524166    7.09817811258254    7.93725527064118
C        28.36819919952566    6.29861286211957    9.17397451716692
H        27.61907594624039    6.97528138941849    8.78865055857814
C        28.02210053059575    5.37483639539241   10.13109244409327
H        26.99536129781974    5.33890347223034   10.45992824344252
C        28.96427905606370    4.47594864504035   10.65843173682942
C        28.64329266351424    3.49896361419058   11.67282863583642
C        27.42671703591567    3.57791627034292   12.35989879660684
H        26.81412744243383    4.45985104318215   12.18551335507621
C        25.79045049543792    3.16467228484959   13.93361701790544
C        24.17514546828766    4.76285888956497   14.26308595355541
H        23.81231980291363    5.73468514275469   13.95725736367284
C        23.53532586279196    4.02081896980095   15.23525084352518
H        22.64529470571286    4.38600621955462   15.72152092002266
C        24.06843801695479    2.78252714890570   15.57579600748759
H        23.58024562752090    2.18130792887937   16.32656677356587
C        25.20842832839243    2.33576116867785   14.93063127373181
C        25.25734758613468    0.25910094311339   16.11248273382803
H        25.17063580310470    0.73450325582663   17.10188612390673
H        25.97998434903365   -0.56249674783115   16.18860385401908
C        23.91811720791758   -0.30022059252987   15.69128020026830
C        23.50312678416641   -0.25330109490678   14.36861411809663
H        24.13268229589529    0.20810533560112   13.62490527840349
C        22.28457192378963   -0.79789639264974   14.00297410728655
H        21.97275555316152   -0.75963717014887   12.97011745284284
C        21.47207623392600   -1.39031098022028   14.95341256085384
H        20.52144454019632   -1.81504852918214   14.66719794092724
C        21.88142915128216   -1.43662123694260   16.27586688643677
H        21.25082639622216   -1.89561453059727   17.02298191271551
C        23.09843216261492   -0.89294938324022   16.64399406541245
H        23.41723234126206   -0.92951992404222   17.67672837555821

