100
CSD_code = EXEBIT | q = 0 | S = 0 | Stoichiometry = C38H57NOP2Ti | MND = 5
Ti        8.10979295142580    3.71938375896812    4.15310388085448
P         7.29330028931591    4.59617442536700    6.34918868463669
C         8.95955664676319    4.69088494273986    7.06473323989016
C         9.34517292548360    5.53800302308936    8.09336252217826
C        10.63968612933590    5.53102830878977    8.59335226063084
C        11.04758990623202    6.43637971356185    9.71819410030201
C        11.55531088550768    4.64586137558415    8.02790857315711
C        11.20190547092186    3.80309486548587    6.99797602875825
C         9.89359871785632    3.79723488513851    6.47420138656694
N         9.52126576661204    3.05353886073846    5.40077571319894
C        10.15461374334466    1.89485491655602    5.04448533622492
C        10.58926401550579    0.94190868518876    5.98358290098210
C        11.14824218730884   -0.25014536476233    5.58229904751892
C        11.30746470957576   -0.55977836736579    4.23292730316167
C        11.91690419608927   -1.86694238818410    3.82064849498616
C        10.89443892581464    0.37358961391857    3.29510591933659
C        10.33011016737172    1.58466161557404    3.67322297563632
P         9.81950882613289    2.89425198514798    2.51373572922634
C         6.45243416782358    3.46121969888003    7.59942524869836
C         6.25096154249018    4.04781326707837    8.99348719501033
C         7.28770095590287    2.18637800742184    7.68632278612907
C         6.45710647316789    6.23153286439641    6.70103297780377
C         7.21438246208804    7.38987037900727    6.06352429339778
C         5.05303005917281    6.12872330553278    6.10768122558872
C        11.52099931999495    3.50505204424598    1.97624167934830
C        12.38010841935431    3.75324611073248    3.21304408332665
C        11.35322232125585    4.78066298280148    1.15542338744601
C         9.16753310625736    1.98399261793404    1.00065648327951
C         8.03830653036948    2.84875379305305    0.43755113853916
C        10.15277816067520    1.60953024188257   -0.10324501412604
C         6.64430503303053    2.57303789345617    3.75211665656548
C         6.17733485836043    1.14419167746605    3.81199667047107
C         5.61048840516104    0.71295781574312    2.44402776686730
C         5.03824602393512    1.01436949774080    4.84406449814649
C         7.30308750303161    0.17473101601572    4.18956014148534
C         7.64547641955252    5.42562148686199    3.07827597314167
C         6.69420633302720    5.87246682610992    2.16617637169838
C         6.82003752734067    7.08913417727858    1.50255437213856
C         7.92199772435662    7.88893173356409    1.73164831847180
C         8.89867730223691    7.49020882695880    2.63563371401996
C         8.73980086401072    6.27908421676794    3.29115724096635
O         9.63280087556499    5.77940305786202    4.23870377478183
C        10.64730724633310    6.64372601422568    4.69090964879289
H         8.62366009745925    6.22167647688859    8.52141192098799
H        10.28583018766975    7.18968417825474    9.90658866807186
H        11.19570208617530    5.86337949395837   10.63459468490412
H        11.98581578318590    6.93950020438421    9.48719243830280
H        12.57129960533243    4.62976312207257    8.39939098500093
H        11.94421209763680    3.14886310220580    6.55978801836457
H        10.45529732905399    1.14803329815868    7.03753259415232
H        11.46472455248814   -0.96603884958998    6.32849497707109
H        11.36471426615607   -2.69891502848697    4.25631102133617
H        12.94824508034581   -1.93517615683568    4.16764406419465
H        11.90944379772970   -1.97537611180104    2.73866295409711
H        11.01532224812455    0.14909632925695    2.24412624694849
H         5.47678455512832    3.21565959279455    7.16040469753054
H         5.50490616068897    4.83858910790971    9.00104579029741
H         5.90689535177240    3.26296874106241    9.66651699407714
H         7.18949281999398    4.43639955696994    9.38485685565124
H         8.20046617896966    2.37346324381864    8.25179382304033
H         6.73367414792576    1.39232958748638    8.18636567601015
H         7.56204370867650    1.85230812292305    6.68290888205187
H         6.39866069255630    6.39584683395478    7.78211733466073
H         8.24381258164507    7.42292074204256    6.41626187494423
H         6.73491314195304    8.33599901580112    6.31530963587856
H         7.21414422178929    7.28657356389726    4.97886623039067
H         5.12543908790562    5.86338614629263    5.04966385739154
H         4.46469894651761    5.36565502939303    6.61436120139180
H         4.52819799075911    7.07945557567163    6.19316312174942
H        11.99887187089402    2.73120674200891    1.36567846478942
H        13.29205998346590    4.28482236595247    2.94177905217367
H        12.66010386425726    2.81151758722370    3.68283088210360
H        11.83656759709988    4.34921645378572    3.94416661102485
H        12.32275779656318    5.16387239255532    0.83691132154897
H        10.85330238368094    5.54759723816035    1.74411978310590
H        10.74927810578522    4.60250138415606    0.26742376878384
H         8.72714379036669    1.06343264888160    1.40720445819874
H         8.43225678047995    3.77987059840463    0.03024916429145
H         7.33699429856274    3.09563168786115    1.24102240630518
H         7.50793721509289    2.32549460359048   -0.35740224338102
H         9.62753257000448    1.03741149086541   -0.86797541403417
H        10.56907398513335    2.49395101082923   -0.57953729902824
H        10.97211669857687    0.99594157363789    0.26386961764862
H         5.81327629036613    3.19553696998904    3.35673950489433
H         6.37786169985664    0.77705427612993    1.67640053447291
H         4.78126321100191    1.35563023355572    2.15364354753441
H         5.24933136646077   -0.31419687479511    2.48661939128962
H         5.40277342412247    1.24793924334597    5.84053275167098
H         4.63897179464168    0.00057653610742    4.84916245604861
H         4.22923992513551    1.70195740112078    4.60245743581684
H         6.91921290050721   -0.84122740830351    4.27814900163263
H         7.75981684845164    0.45232880087982    5.13841780892196
H         8.08140040704407    0.18301416158094    3.42826244616149
H         5.81638359315110    5.26289720922782    1.96517678470106
H         6.05859409981687    7.40971050620267    0.80458976409053
H         8.03223998925795    8.83148423459871    1.21420722598274
H         9.75289765554694    8.13087082978788    2.80497420777324
H        11.38691259331519    6.84834575086345    3.90689093271112
H        10.23205071414684    7.59468771088606    5.04325150389327
H        11.13912373454427    6.14265331401710    5.52543485126831

