99
CSD_code = EXECIU | q = 0 | S = 0 | Stoichiometry = C38H49F8NP2Ti | MND = 5
Ti        4.89589161599791    9.10287020800204    3.98511590025079
P         4.41383542165626    8.62396153292892    1.54919850100960
C         2.76901084368713    7.92658479200941    1.89712558902070
H        -0.18515927218855   12.28612194757806    8.06570541569896
C         2.03902070225280    7.22934315125488    0.93863952161281
C         0.80610289702142    6.66796573670106    1.21838412234019
C         0.01752075111990    5.94321297253664    0.16998414554496
C         0.31405581403352    6.79779454307026    2.51597674845396
C         1.01794546823785    7.47430611037587    3.48302316024562
C         2.26269838574872    8.07494310422090    3.20852709372275
N         2.99698672557490    8.71689611336357    4.17380172274846
C         2.36686830737987    9.35932359756023    5.22076637916314
C         1.11856567173706    9.98335347555946    5.08414604892492
C         0.58865318427526   10.74937384646902    6.09961631855786
C         1.29213583639352   10.95362918296557    7.28094469696350
C         0.76962614955887   11.85679524477975    8.35588958043935
C         2.51761650365023   10.32009842821351    7.43775327718598
C         3.04430673256672    9.48386734154454    6.45943705972856
P         4.68763465908879    8.67937826819980    6.51709589928236
C         4.07237243749344    9.86355124319617    0.17142215666113
C         4.04606723179455    9.31232463287950   -1.25019008106156
C         5.08447549516814   11.00375482294146    0.27633592769567
C         5.26718467950032    7.16370362024592    0.74092795508700
C         5.12189533994022    5.92693010354535    1.62472518724914
C         6.74248942042406    7.49628321919290    0.53452433207412
C         5.36422400718504    9.22414442730914    8.18658649589293
C         6.86675748253788    8.95282374585286    8.33849405721054
C         4.61424897250185    8.65597546089912    9.39306428821848
C         4.33492804933237    6.85255193412973    6.81850431377621
C         5.67693121590205    6.12062691194950    6.84957658466141
C         3.45936335801960    6.23865677775372    5.73317313618205
C         5.59986477973482   10.91886772400265    4.12469369584253
C         7.08645379328960   11.23602981277140    4.16111210085818
C         7.71317028319572   10.65242076421583    2.87744224610346
C         7.37400845213731   12.74547440480728    4.15848215134249
C         7.77526431647653   10.56629070787296    5.35823946347492
C         4.60835204690530   11.77801200411210    4.60768672891590
C         3.34882523863763   11.84260712446923    3.92926775874385
C         2.33233243211896   12.69877190833460    4.23667050396272
C         2.42227431578176   13.56866855233985    5.33786127005826
C         3.59688676715450   13.47415422857558    6.10310295833128
C         4.62912173544118   12.64505387699771    5.75039952008589
F         3.21055942105323   10.99468998283166    2.84814426239876
F         1.22769260867665   12.71585593236872    3.47296373025740
F         3.71397465046393   14.18792391714224    7.23626249850216
F         5.65427923758248   12.52047156717059    6.63236722871091
C         1.30488358322872   14.50975393069909    5.62923731142290
F         1.18188527588046   15.47131734327293    4.68527808907876
F         1.42272553067290   15.15311471735468    6.79367921147036
F         0.10364984382143   13.89787409221824    5.66985138272041
F         6.21053992773266    7.93668180032122    3.90130398771599
H         2.44802825029687    7.11491079382329   -0.05512046689894
H         0.62561499514406    5.74728300780832   -0.70994151312793
H        -0.84257810723708    6.54015911777485   -0.13419490860490
H        -0.35568918152776    4.99611763519358    0.55606560367358
H        -0.63611731392224    6.34965921303679    2.76977966585320
H         0.61323812421597    7.53689251968648    4.48381312055997
H         0.59483151415598    9.91060740838674    4.14122043688586
H        -0.36466857954699   11.23399836901141    5.95247489628785
H         1.47064840570928   12.67026975653965    8.54081041682755
H         0.63960091806666   11.31184329858479    9.29057609298459
H         3.06218828255947   10.50872766407553    8.34922662200003
H         3.07791265441567   10.25664717864140    0.41512280647038
H         3.29079970016208    8.54138438995325   -1.37366982246633
H         3.80187573380562   10.12257137264146   -1.93590299779877
H         5.01477286345866    8.91210413462524   -1.54076004243630
H         5.13920703777365   11.36907806644889    1.30219786579278
H         6.07435274656568   10.66777263994882   -0.02851873664129
H         4.79152202286430   11.82801477470075   -0.37167256099104
H         4.79303686288073    6.96831298164160   -0.22715190764515
H         4.07633832410076    5.64502660972377    1.74195433025479
H         5.55013054180184    6.11154593553103    2.61061447547842
H         5.65442438797257    5.08789897403095    1.17883223816481
H         7.22822265551912    7.63189555292734    1.50085621363714
H         7.24551413626301    6.68492989960499    0.01019935476582
H         6.86837682854050    8.40828730340695   -0.04610914065797
H         5.22544441171370   10.31216154555166    8.15155807307922
H         7.34368563240672    9.76787766670870    8.87837844923757
H         7.04342864024892    8.04151608650274    8.90556642259732
H         7.35728757722478    8.85064144373650    7.37434717956172
H         4.85382062060448    9.24697411276981   10.27589528462350
H         3.53579677334661    8.66643840970553    9.25730933967044
H         4.92088993001439    7.63088162678394    9.59031735445163
H         3.82084680977459    6.75011225689756    7.78108226379547
H         6.28040770763739    6.41789574102743    7.70144515893933
H         5.51712340285132    5.04459591430767    6.90902213194615
H         6.23717542869750    6.33331156361107    5.93742281029351
H         2.47263285319864    6.69559811420703    5.71584212445096
H         3.92915410358918    6.34993741433036    4.75083840671235
H         3.32895320411850    5.17333722702914    5.92641825389600
H         7.43016019882401    9.60479289453132    2.75927998976720
H         8.79879055842500   10.72034615245490    2.93015591830084
H         7.38014859945474   11.21120378972464    2.00598209432909
H         7.17571287274559   13.19918306228343    5.12253661184742
H         6.76642296283933   13.24598927470081    3.40607451897919
H         8.42289464561217   12.91785273647957    3.92339542875232
H         7.34922905070208   10.92435542693575    6.29092922144609
H         7.64808044239400    9.48330003475921    5.28297191345994
H         8.84003144194287   10.79487801665403    5.35670737127487

