74
CSD_code = EXEJAS | q = 0 | S = 0 | Stoichiometry = C24H43ClMoN2P2Si | MND = 7
Mo        2.17788525259404    6.64959384821090    3.25710614187257
Si        2.60031642542156    4.63909964155572    1.76970977637148
Cl        0.79067853956967    5.22410578141183    4.71145415721350
P         3.40109633183878    7.13105061334008    5.40285966830119
P         0.26433470845433    8.05736402922198    3.94377884485146
N         3.63168516077831    5.01943236811815    3.03723875148496
N         2.91914125959287    7.92208450790322    2.30157384857612
H         1.00954735564862    6.30422561474952    2.20881310719885
C         4.84477103935814    4.56794165907041    3.50848205788943
C         4.89837654818018    3.56194125406487    4.49213344589130
C         6.12735957847208    3.13111411666917    4.96590078384661
H         6.15789032508585    2.36196432612615    5.72594329190288
C         7.30774921149221    3.66516564666788    4.48008744380640
H         8.25833263158132    3.32320599224149    4.86225213040339
C         7.25820593264792    4.63031010534957    3.49075425892724
H         8.17718122682406    5.03769436972891    3.09141908674148
C         6.04752108590075    5.08422322245041    2.99208096061930
C         6.02131660122881    6.09957527352271    1.88927467176362
H         6.88694566819869    6.75686902572988    1.94818411205990
H         5.10494383855292    6.68874607438741    1.93124028205537
H         6.04807379064678    5.59671539746937    0.92264044520541
C         3.63343369815983    2.94383063796954    5.00666931800978
H         3.77652426209694    2.53625477986755    6.00608062544578
H         3.32500466449610    2.13013343134458    4.34950057405172
H         2.82295655563112    3.67105349440041    5.02420587462721
C         3.29520234830540    8.92172540549772    1.49226666078742
C         4.43150376077221    9.72486283715033    1.75245262121875
C         4.75994816250338   10.76380670372950    0.89846169153937
H         5.63068274167892   11.36424736760879    1.12333472164400
C         4.00494805692374   11.03723127668318   -0.22579016230220
H         4.27152013241532   11.85322992625452   -0.88028086647154
C         2.90877972523502   10.23960037781030   -0.50969392639313
H         2.32301950772411   10.43350827288630   -1.39761292466655
C         2.54432105820101    9.19373772568817    0.31586016563778
C         1.37359597248071    8.33113699156310   -0.03455167428558
H         0.84410043950837    8.73279180195152   -0.89558969033685
H         0.69050103649744    8.25325691646100    0.81094839450651
H         1.70908990995497    7.31902397267753   -0.26097225452815
C         5.31091909273256    9.45146095280443    2.93605150664987
H         4.93738587324775    8.58786727806236    3.48223128704484
H         5.34802886632228   10.31659348059588    3.59926338510370
H         6.32930793784343    9.24608304018978    2.60702601396508
C         3.25344710230686    4.81531011889997   -0.02512803636014
H         4.01797065490105    4.06755871570058   -0.20995640920663
H         3.69039780423334    5.79306004014848   -0.20116684636376
H         2.46125028837999    4.66091325894766   -0.75091036973192
C         1.57093712978174    3.02194183989255    1.86390776212688
H         2.20582178505967    2.15126883494107    1.72511554955519
H         0.80441366707659    2.99894458959947    1.09436739795298
H         1.07731780610356    2.92801608585400    2.82684974510806
C         2.76079718730109    6.35872997266009    6.93494661041955
H         3.27803243732499    6.77078093423263    7.80237217462861
H         2.93303335016386    5.28450640915767    6.88291521317965
H         1.68859201298057    6.52262087715807    7.02360168102556
C         3.33103274671119    8.90104553749367    5.91111591133700
H         3.95970484027738    9.07138447275878    6.78523035413397
H         2.30463848341316    9.16665217253882    6.15565362897939
H         3.66232501439159    9.53829068199291    5.09577094261465
C         5.18744207106964    6.80249069195312    5.69739198985340
H         5.49958141620093    7.30002858768120    6.61622059776916
H         5.79906238856481    7.15229964615136    4.87025510915725
H         5.34002762197856    5.72965205402061    5.79896618694401
C         0.37215177495055    9.84427533259159    3.53037905669376
H        -0.58256722695942   10.34204823265629    3.70017670188235
H         0.66160275997554    9.95067576983108    2.48641992564319
H         1.14121271060561   10.31116132551695    4.14413143937788
C        -1.30661499702219    7.60393662014965    3.11963237927307
H        -2.12300155483751    8.24431728131260    3.45651756060220
H        -1.52415543033126    6.56517223840513    3.36912102051685
H        -1.19164243939517    7.68571976449502    2.04040294484752
C        -0.39880716446007    8.15556950573444    5.65939970996761
H        -1.28269338782187    8.79368343235017    5.66762315469873
H         0.33568525932181    8.55754751405849    6.35398248343552
H        -0.67232242704772    7.14883792193899    5.97410582170859

