40
CSD_code = EXEMOL | q = 0 | S = 0 | Stoichiometry = C17H15Cl2N5Ni | MND = 5
Ni        7.12297877111107    1.75864703577114    2.56900451571222
Cl        7.85699118982090    2.69813918380763    0.86601345874554
Cl        7.03688111897911    1.66246795023747    4.66003234794993
C         4.65709065188992    2.86156105195212    2.37068140895960
C         3.27754101504288    2.84208736486440    2.13662606493522
H         2.82351086276274    1.92844598732172    1.78673629408511
C         5.26569391914420    4.03601099957561    2.82607775628585
H         6.34241453703052    4.05033656664489    3.00173366269032
C         2.53022134338584    3.97978097194534    2.35972299084171
H         1.46585119781885    3.96199038025379    2.18002788087869
C         4.50541249790577    5.16608434063374    3.04533459970685
H         4.97822157474119    6.06979247753375    3.39747613386111
C         3.13759993383025    5.14159963558335    2.81430160941457
H         2.54507769322151    6.02686981416410    2.98866826331264
N         5.43201148986614    1.72230911371938    2.16123971911767
N         4.85596888729770    0.70853197480113    1.67135944060922
N         8.91084549806660   -1.18289079582581    2.30309616717146
H         9.67580033405801   -1.82166573516192    2.12280075749540
N         9.20769894513237    0.10656943346963    2.76548366257461
H         9.22846733415416    0.15226157987594    3.78590928630513
N         6.85666919867403   -0.36549172580028    1.90142225636372
C         7.67923843780372   -1.39385839418053    1.76665638789335
C         5.59075965710420   -0.42546547349070    1.47602316394375
C         5.07593461248371   -1.57571379622041    0.87869467997806
H         4.05454800533921   -1.60832107597146    0.54211058932995
C         7.24843856962235   -2.58770497347061    1.16836999311904
H         7.92181979039447   -3.42232328964512    1.05767302144469
C         5.93709022024334   -2.65607605906677    0.73234244430811
H         5.57884603575621   -3.56323586817588    0.26901220186863
C        10.28504743492342    0.77930111825233    2.16140653346012
C        10.61128068042746    0.55685403909802    0.82771538789353
H        10.04144515620761   -0.14925470502516    0.24136039523375
C        10.99913347558129    1.72109371047466    2.89732054073958
H        10.73208653929779    1.90356364197791    3.92893110461635
C        11.63827992863830    1.27332013718112    0.24173667464930
H        11.87915678951882    1.10134695739566   -0.79668508625307
C        12.34534442386394    2.21172646276752    0.97241543256650
H        13.14210301387996    2.77275474653599    0.50844783547972
C        12.01690164662980    2.43739535566921    2.29946322954456
H        12.55829758838302    3.17435986051654    2.87385719319878

