47
CSD_code = EXEPOM | q = 1 | S = 0 | Stoichiometry = C18H18CoN10(1+) | MND = 6
Co        0.34242489369567    8.97239896387541    3.17785839140735
N        -0.89386085576600    7.86234147452458    4.34639775492687
N         0.53462870559604    7.35394932526774    2.17728636936189
N         1.73361492460221    8.41636163060681    4.45603432051971
N        -0.10206485730927   10.41179544534379    4.33749813564921
N        -1.07473736669151    9.45179224910011    2.07230767550207
N        -1.44128215521908   10.51941515756198    1.73653503594306
N        -1.92756047749951   11.47267055099628    1.37461245174531
N         1.53329666192290    9.97156459210887    2.16795652290352
N         1.52659716712362   10.24622734734052    1.02125953387054
N         1.68330591752390   10.57348794388994   -0.04801636541831
C        -1.50115648427241    6.91806490189448    3.40113694901372
H        -2.27003518102464    7.44127068460640    2.82427332513873
H        -1.96822758445754    6.06464980159054    3.90703624828673
C        -0.44885757889496    6.47394590917930    2.42039535929854
C        -0.51039522797697    5.24819027530435    1.77687997133829
H        -1.31939342383255    4.56875590226477    1.99489447810482
C         0.46391952815827    4.91939595926192    0.84783278069898
H         0.42771078732487    3.97690618719389    0.32495967224804
C         1.48249003830624    5.82824391388401    0.61109563502481
H         2.26497169716932    5.61973412143869   -0.09956316572095
C         1.48155171969790    7.02859080002718    1.29919665905908
H         2.26554667471489    7.75315008315230    1.13418978360457
C        -0.11558168698625    7.15674075692308    5.37520256753744
H        -0.59431741506728    7.24514481000132    6.35761510536968
H        -0.07212392664093    6.08826842046641    5.13374230194487
C         1.30232356291572    7.65481980681118    5.46207256581673
C         2.12621309211433    7.29867861737729    6.52110199095082
H         1.74118570263153    6.68172780405421    7.31780175877271
C         3.43779392126583    7.74196681080630    6.53235876611267
H         4.09778105850526    7.47859762970402    7.34363612614768
C         3.88053583933217    8.52870095896442    5.47883790377623
H         4.89359920322103    8.89359286309987    5.44230336231019
C         2.99510434368654    8.84390209285129    4.46580848197847
H         3.28811232720278    9.45932357833578    3.62717021849831
C        -1.83222618749247    8.82803833323613    4.92668395428378
H        -2.27822254845298    8.46433864457132    5.86056751156143
H        -2.64675938170685    9.00101551032543    4.21521553527845
C        -1.14672097725077   10.15288764108673    5.13730505578734
C        -1.61033805431054   11.08306533328034    6.05444283185852
H        -2.45608395596602   10.84326911353661    6.67942049513713
C        -0.98950548463132   12.31880762028977    6.13974753805023
H        -1.34258514287656   13.06170127979283    6.83715525404304
C         0.08622215120329   12.57852439363912    5.30510888870967
H         0.59528405113976   13.52772198495441    5.32746546107872
C         0.49973275864994   11.59707308390112    4.42351691512587
H         1.32878922662222   11.75868969157815    3.74886188736303

