63
CSD_code = EXETAD | q = 0 | S = 0 | Stoichiometry = C28H28MoN4O2 | MND = 8
Mo        9.96269019349466    8.66371337103596    7.89707660518904
O         9.14834594366159    8.53919508105059    4.92144156057982
O        12.65150618857547    9.42905454713728    6.58206775199661
N         9.12529877614936   11.69704691661474    7.21834074455336
N        10.46209428247960    8.90174202371810    9.89200756732397
C        11.67399560482288    9.22622594030502   10.33936988111905
H        12.45428708246292    9.29461944195075    9.59208803784402
N         9.16252424535350   11.18669563267698    9.34152981326686
C        10.32165743605109    6.46478667692117    8.29452270029433
N         8.14309147743839    8.43835782638704    8.87348947023648
C         7.93944203994706   11.28342790550917    5.15220871984653
C         6.96703148052455    8.27796141619827    8.26407755844300
H         7.00692653013421    8.14499087447042    7.19015343208939
C         9.45214005834390    8.86969182107369   10.78463211164188
C        10.27614636347673   11.68789164386130    3.71126995296755
H        11.18636443514133   11.85108807240773    3.15166349907412
C         9.95386645645726    5.84722217013494    9.61506642325629
H         8.89544532239845    5.97696801711919    9.84840869808664
H        10.55073563670631    6.25073596782711   10.43397954315072
H        10.14918526559400    4.77265014628339    9.56242202575782
C         5.74994568474589    8.44989956755011   10.30607738110725
H         4.82299879164117    8.45323740858981   10.85860905036669
C         5.75726746557340    8.27827570397382    8.92366504363954
H         4.83839529448461    8.14921403761260    8.37414350761148
C         9.11132600977268   11.35512824688601    3.03882232332002
C        11.96106131427519    9.47827873070908   11.66416324842491
H        12.96413183899616    9.73885069659144   11.96256083271221
C         9.43798193011129    6.50116668330304    7.19617196702521
H         8.43881539371791    6.09638925616820    7.34657795706778
H         9.84471313875511    6.25903705336107    6.21850648139905
C         9.10385094338459   11.17858287893954    1.55063208774013
H         8.17662463213884   11.55128680212406    1.12020458644812
H         9.18518105603139   10.11898448580987    1.30759332160738
H         9.94185677245878   11.69768372813490    1.09192722751367
C         9.38502367536209   10.70510914504620    8.12593064655884
C        11.60170428618350    6.99050188818126    8.02500131074785
H        12.03997788328277    6.76600765017622    7.05671081878370
H        12.32946311115155    6.97604481950432    8.83315447616739
C         9.66818516229607    9.08894052209431   12.14910563388467
H         8.84873650729667    9.03523070599425   12.84709390031212
C         6.95566905983817    8.62524794522010   10.94815352387732
H         6.97871426262429    8.77522130609438   12.01495690788174
C         8.14408944717266    8.62510182684542   10.20910639285155
C         7.94713600359892   11.17163386890793    3.77249452947344
H         7.02852565233202   10.92657079171584    3.25807263053577
C         9.13427343844184   11.58900828775792    5.81051216669880
C        11.64855693961455    9.18323509880343    7.09481127719816
C         8.76839695299673   12.47711648337807    9.21851694492717
H         8.53899554670513   13.07935862842898   10.07781015770996
C         9.39305643210978    8.65711341857932    6.04144197850535
C         6.66801058313597   11.10197529993158    5.92751216960723
H         6.19194297153216   12.06916172177766    6.09587365325090
H         6.86584706058531   10.65439275537407    6.90045140230189
H         5.97225476544491   10.47148968678445    5.37915450812872
C         8.73206750149948   12.81606391617298    7.89834186102188
H         8.47197616871314   13.72605213331299    7.39466014541444
C        11.56611364130903   12.25525654210525    5.77861716811135
H        11.69622903791606   13.33151354820562    5.65515266281073
H        12.42950765819147   11.75831887538664    5.34369868737220
H        11.53167075590037   12.03299428550012    6.84265179211512
C        10.93454091208551    9.38943569370715   12.59979148720464
H        11.12210268395601    9.56472220405808   13.64806433874462
C        10.30730681333789   11.81870017834332    5.09278571499339

