76
CSD_code = EXEZUE | q = 0 | S = 0 | Stoichiometry = C34H32AgN2O5PS | MND = 3
Ag        3.13601310298365    0.12725786187525   11.98253084173104
S         4.65722914632164   -2.08800155013087   12.93736963410905
P         2.31717924368286    1.72801835160047   10.34459019341486
O         4.72809046454689   -1.58638240432266   11.57362741468030
O         5.88604853261420   -2.05432894975665   13.67897070829523
O         2.13696931848483   -2.31178901575797   19.61549422375491
O         0.72999715594660   -0.75018295170256   19.14874462077374
O         1.53001050845579    0.35761360003881   14.37342622916813
N         1.64287293141397   -1.50372571388554   18.84522366247010
N         3.46290327774407   -1.25775989266902   13.61510004627156
C         3.11601879224001   -1.33819649760439   14.90692383686510
C         3.69505664947084   -2.19776234854721   15.85648383902889
H         4.54624621976656   -2.78874149180708   15.55860730777554
C         3.22440997139598   -2.24519102115762   17.14480776208111
H         3.66821425123354   -2.90097250714447   17.87801072159098
C         2.15211179652082   -1.43828879436534   17.52623786857581
C         1.57735440737318   -0.54688312980919   16.61438465354511
H         0.75984993482900    0.08038266726059   16.93840318313061
C         2.06296664692292   -0.48109726997026   15.33424432937833
C         1.10644932891988    1.60814096746981   14.75646559508931
C         1.74581679245986    2.35923616351692   15.73743848084992
H         2.58832853698561    1.94443366121841   16.26995995161995
C         1.30162926708948    3.63847799498610   16.01663590970976
H         1.79873194401007    4.21590595087646   16.78135466291146
C         0.23085384363339    4.17957651142123   15.32451709638138
H        -0.11083455036383    5.17787914427285   15.55050465978337
C        -0.40091267128902    3.43152526913284   14.34528907134190
H        -1.23783588346448    3.84157553477394   13.80056907556285
C         0.02893289042694    2.14857935077151   14.06218930246935
H        -0.45599072302875    1.55334711402145   13.30537452490949
C         2.44537415404006    1.16673522338751    8.61139905500027
C         3.69148045563332    0.73003382593099    8.13914673298439
C         3.78109833031264    0.28071083199388    6.82816480586675
H         4.73570544024577   -0.05924890868962    6.45357999283677
C         2.67503265277279    0.25919617781084    5.99650678078252
H         2.77069269935592   -0.09615082105252    4.98150548806247
C         1.44943770147926    0.69859328547931    6.46644333894970
H         0.58320096727872    0.69292452930963    5.82216168371579
C         1.33629930849501    1.14871031877550    7.76910256922518
H         0.38074424578011    1.49797085202424    8.13400876729549
C         4.89803845168806    0.74641716238941    9.01857813266097
H         5.00038645294991    1.71138828909179    9.51859726045459
H         5.79934766470462    0.55693076114498    8.44103001100003
H         4.81874124463966   -0.03180589641838    9.78468933035968
C        -1.70041822552037    1.25732439439415   10.86103562596790
H        -2.39211474319083    0.43492877292114   10.97543842117685
C        -2.17610377535575    2.55727358543785   10.89806831854712
H        -3.23109594024387    2.74003950306766   11.03589802560229
C        -1.29567596389676    3.61629455520709   10.76499366018928
H        -1.65640111516550    4.63322400163189   10.79749128434395
C         0.05354957996349    3.36993661197962   10.58712561745901
H         0.73921204946726    4.19787443151929   10.48354720775531
C         0.53699358209285    2.06590969995813   10.53438017640223
C        -0.34947965306227    0.98763497422513   10.68738490986543
C         0.14067697607466   -0.42526474621707   10.68278287890529
H        -0.69019681955242   -1.12137511530304   10.76977804069431
H         0.82588680321942   -0.58525700042846   11.53717419792106
H         0.68777703402211   -0.64478334917813    9.76410332084008
C         4.09286530765330   -3.80826886846948   12.79693371300687
H         3.25540523455582   -3.82463145265741   12.11172022348002
H         3.80073218767284   -4.16688816481811   13.77530074602052
H         4.92100343066706   -4.38591736309396   12.40753096571702
C         3.04488376326410    3.40308244863279   10.23951840059294
C         3.17153655259336    4.03181607652654    9.00224096587858
H         2.81662826241940    3.53338624114534    8.11207400559918
C         3.74233405104945    5.28686898334136    8.90208434314757
H         3.82959863951808    5.76260521046397    7.93713086442262
C         4.20059805656918    5.92498786696973   10.04167439965076
H         4.65191715337493    6.90313812968150    9.97248772929523
C         4.07826334012098    5.30625721141058   11.27346739590846
H         4.43516747007968    5.80963821790898   12.16017512736434
C         3.50322503290680    4.04784306281223   11.39632263849379
C         3.36362414082595    3.41404213729243   12.74290744465189
H         3.77970302240624    4.05272970757922   13.51768889042246
H         3.88534285913819    2.44101125160919   12.77149787365415
H         2.31107080957775    3.23728674868222   12.96794923039479

