101
CSD_code = EXIBEU | q = 0 | S = 0 | Stoichiometry = C49H41AgN2O5P2S | MND = 3
C         2.09606880972020   -2.03673799464150   11.82195037809381
C         1.15292241179766   -1.65605885741089   12.76897485494198
H         0.88022494839690   -0.61268899700355   12.85274005063048
C         0.55871462619637   -2.61203444043710   13.57330617755131
H        -0.17447264839215   -2.31621519150730   14.30909318450055
C         0.89787044597913   -3.94755115613676   13.43068699743384
H         0.43175367389496   -4.69426850444549   14.05690168224347
C         1.82771466105005   -4.33121488783132   12.47641476926777
H         2.08290560306110   -5.37457846500092   12.35944122132965
C         2.42643055535124   -3.38125380616429   11.66960085653711
H         3.14494950642242   -3.67761786852566   10.91707418137485
C         2.92099349097563   -1.60708100987112    9.18645421088342
C         1.69546104049825   -1.78467720648900    8.54396340185202
H         0.79447607341513   -1.42113137534261    9.02259557589977
C         1.64374843265555   -2.40961828948574    7.31300586036902
H         0.69430178518363   -2.54743755028371    6.81678960610625
C         2.81206015660178   -2.85338492259440    6.71072045451992
H         2.77260195858116   -3.33849432342008    5.74637942163904
C         4.02993033098560   -2.67182709499035    7.34374473715660
H         4.93964045425817   -3.01659287774654    6.87399597530402
C         4.09020930300494   -2.04991685926420    8.57982456514550
H         5.04309227657838   -1.90765631688227    9.06933640572129
C         4.59624725867532   -0.71788115059935   11.30263543085081
C         5.15137730703600   -1.55706989746061   12.25990152644070
H         4.54265550562288   -2.31159794100327   12.73677399631887
C         6.48607644899793   -1.42144020005771   12.60474934009795
H         6.91544806264747   -2.07628458632911   13.34897848584070
C         7.26956272513913   -0.45036373236957   12.00437945934735
H         8.30830666985247   -0.34811666187949   12.28061448143456
C         6.71777000445425    0.39608515291027   11.05419502318597
H         7.32009335590776    1.16291251505811   10.59043421502765
C         5.38685596227831    0.26542043714978   10.71058456724563
H         4.93290425900067    0.92983011851364    9.98272674418473
C         2.95471673858526    3.02125918457041    7.69968462293211
C         2.73437306278840    1.70879570622392    7.29683769798003
H         2.51570024537153    0.95396659342934    8.05270139452734
C         2.78014415546065    1.37081659674267    5.95637898590748
H         2.60855076784569    0.34811355770883    5.65375015830583
C         3.03946778069621    2.34785502884987    5.00885210744374
H         3.07030135194251    2.08963388556030    3.96056984085062
C         3.25151141962171    3.66010589659767    5.40337298933736
H         3.44733265009483    4.42118804904005    4.66213798997163
C         3.21108587990806    4.00006871061489    6.74318600112797
H         3.37337720724077    5.02348727201845    7.05249800782585
C         4.61866461899503    3.75441228371192    9.89287148290213
C         5.66582218215099    3.59322492628598    8.99326186988785
H         5.46628580332418    3.27705319052362    7.97955726998044
C         6.96805816340020    3.83716223561974    9.39543521463174
H         7.77659633338499    3.71636217551577    8.68869366779197
C         7.23698507966559    4.23421931057269   10.69441211857207
H         8.25455411359127    4.42458540839142   11.00240771380479
C         6.19776755715294    4.38094225200120   11.60016556820709
H         6.40475405772758    4.68383305426415   12.61596029483384
C         4.89658907377768    4.13642800771136   11.20486384898632
H         4.07959209447494    4.23793731547739   11.90531087434927
C         2.11324777680246    5.04372809154622    9.43027266213307
C         2.72545389858194    6.21192182777349    9.86776102688746
H         3.72741359102757    6.18513253417169   10.27072612837556
C         2.04849586609329    7.41714639929197    9.78407371812013
H         2.52175333369804    8.32222332646235   10.13424693140253
C         0.76691165735851    7.46444782639879    9.26273014088927
H         0.24139460106569    8.40584941277388    9.20389544034922
C         0.15129506566601    6.29820232756377    8.83397428312017
H        -0.85231715831779    6.33282070446448    8.43644052546679
C         0.81566716289001    5.09043192839733    8.92222622328918
H         0.33232808153262    4.17427311487398    8.60825564376463
C        -0.42887506803691    3.57868368352210   11.75019845003360
C        -1.53213304472751    4.36304582050971   11.36046213107246
H        -2.36657729657734    3.87727895155049   10.88211631443190
C        -1.54440189239310    5.72091133855837   11.54446057931472
H        -2.38950109353212    6.31772072030584   11.23632287509177
C        -0.45006757088713    6.36142690838780   12.12734261824212
C         0.66550229383574    5.61663816120968   12.52305513856658
H         1.52463512775015    6.12213095205085   12.93629490053753
C         0.67533788033878    4.26058307427461   12.34025141611876
C         1.84561127041416    2.52355533147235   13.46154470674611
C         0.86418125824397    2.34392869226899   14.43035054722508
H         0.02430966175974    3.02159631182987   14.47367538971893
C         0.97062089855582    1.29546279332567   15.32657578648827
H         0.20056111581843    1.15707171699947   16.07139313181682
C         2.05622329238717    0.43726437333355   15.28478134388446
H         2.13350967626998   -0.37493223738622   15.99137529855005
C         3.04559982435142    0.62999165431285   14.33371029836359
H         3.90453912307812   -0.02391037950765   14.30066313431518
C         2.94506729436817    1.66236179555890   13.41896121919225
H         3.72864852901574    1.84466837645384   12.69325383734882
C        -2.80735853117281    1.35150406216278   10.53150391315775
H        -3.09268790083670    1.56094845394949   11.55519008036179
H        -3.07933681622690    0.33848812227739   10.26297987501600
H        -3.24778164280219    2.05867039735728    9.84012688385063
N        -0.43878481851335    7.76512300655206   12.26796907562492
N        -0.32960873359219    2.25137115884766   11.61070955745785
O        -1.41028361311589    8.39488786914444   11.87412876929694
O         0.54624190883934    8.28983071466410   12.76695144978278
O         1.85178422563760    3.56967723602108   12.57989294253409
O        -0.63635618123011    2.07102236409935    9.14496221616192
O        -0.52656946284241    0.07802147573178   10.53398579122039
P         2.84638812328950   -0.73920216632144   10.79085894142559
P         2.87694562235489    3.38968965926869    9.48728691077285
Ag        1.57638932144367    1.43733252533510   10.53188931996128
S        -0.99214245078407    1.44367288776499   10.40339487411676

