56
CSD_code = EXIDEU | q = 0 | S = 0 | Stoichiometry = C18H16CuF12N3O6 | MND = 6
Cu        0.13535166824097   -0.83338101532896    9.09007239664963
O         0.60703565822924    1.10627678376357    8.87609074519847
C         1.93139643395514    2.94701737508723    8.17567685760411
F         0.98969384544395    3.67888968504717    8.75699591512847
F         3.09042522381271    3.20968048438084    8.79452839194430
F         2.06359129925078    3.37779732678729    6.91564111055836
C         1.61195389614576    1.43425179568111    8.22401527660029
C         2.49685015040119    0.62162754639612    7.51621204578265
H         3.32596065702590    1.07463153992668    6.99759079301919
C         2.32443719117367   -0.75637294747245    7.44987071921439
C         3.40041847345862   -1.49189898579843    6.61165222734349
F         4.61394838276666   -1.35583566391091    7.16152334620732
F         3.15386918236775   -2.79371217556731    6.51009071741183
F         3.48111400272852   -0.99923735696517    5.37131508924513
O         1.45822548568101   -1.49363442181980    7.95454260196448
O        -1.19279086733906   -0.23450121567705    7.30472665765383
C        -2.24708908507311    1.64956625077056    6.29917493661237
F        -3.52519728805268    2.05227100533615    6.32423041827387
F        -1.49042579759972    2.75856967731180    6.28104232035768
F        -2.05375080535206    1.01912433417759    5.14229679534369
C        -1.87937220643074    0.76731351656838    7.51695445604209
C        -2.36467484107700    1.24466427522326    8.75216722770037
H        -2.96811712349915    2.13648517187730    8.77000751579342
C        -2.05184434912833    0.61413929730364    9.93699318987025
C        -2.68876834402989    1.19420644310306   11.21495939339165
F        -3.93916829018656    0.72453576120009   11.37278300501815
F        -2.00811688943396    0.84455881810620   12.30841232872455
F        -2.77664300433888    2.52395445450480   11.20479610771102
O        -1.35918872366725   -0.41994456635831   10.14624041269901
N         0.04938653980564   -2.66296342360329    9.85888507287031
C        -0.84489724123111   -3.71127805793484    9.38884923802772
C        -2.07541500645689   -3.07557297919983    8.73179788932412
H        -1.74656782227842   -2.46310481169291    7.89473544192329
H        -2.60146191799786   -2.43273944667165    9.43252501757065
H        -2.74655843218843   -3.84549198868181    8.36315587888734
C        -0.10991473646037   -4.53768434067659    8.33506320873647
H         0.11578871834918   -3.89015536431149    7.49338734505364
H        -0.73239904592045   -5.36054506308391    7.99587440217466
H         0.83079443505224   -4.92317443962036    8.71112368903358
C        -1.20942562196344   -4.47271672490735   10.71030920417257
C        -0.30117143824716   -5.67917562162770   10.97057368806835
H        -0.47996746510050   -6.03106657051997   11.98545048711009
H         0.74756887743570   -5.40756098122755   10.88208088763829
H        -0.52529023369828   -6.48248814543155   10.27636571044276
C        -2.66281504993092   -4.87910239032906   10.90860839191317
H        -2.77476453177254   -5.31572775094394   11.89879790499740
H        -2.94863068516337   -5.61985832084861   10.16776802001074
H        -3.33231719068768   -4.02739341220927   10.83993352869045
N        -0.84034689259324   -3.46917617743074   11.72903304844194
O        -1.03925924805855   -3.64675360701941   12.95391445519741
C        -0.07671094587254   -2.53546686464818   11.16727187436860
C         0.60275654271288   -1.40806283752689   11.86330689996047
O         1.21294400995092   -0.58357160360725   11.19065717104341
N         0.49306959168480   -1.39975158651994   13.18903439008243
H         0.86635877255917   -0.62118212794158   13.70830910948108
H        -0.08387791741023   -2.10137855551314   13.64548504571065

