56
CSD_code = EXIFAS | q = 0 | S = 0 | Stoichiometry = C18H16CoF12N3O6 | MND = 6
Co        6.67398360542743    1.04102410873953    8.09230425576813
O         8.11976043802540    2.16205719524485    8.37011241377866
C        10.17463769550629    3.29388530012912    8.07308734962765
F         9.76949439380876    3.98040874103981    9.13913932547334
F        11.37624423382999    2.78142603728740    8.35551844364451
F        10.35448878232426    4.17482314768922    7.07870099834471
C         9.16248119710552    2.20202633734681    7.67176723253621
C         9.51381003018620    1.41317935160767    6.58244983651386
H        10.45622216282378    1.56903426624326    6.08518661351150
C         8.63886810069605    0.42327110232178    6.13030859189703
C         9.12903064384533   -0.39354090878017    4.91528030614399
F         8.26078842020060   -1.32898328484374    4.54866461078095
F         9.34570110977529    0.39614242914971    3.85505645727930
F        10.29183604334403   -1.00567853171792    5.18056419620484
O         7.52006322556911    0.12176703986908    6.58920279945830
C         7.00281712431453   -1.37778970670082    9.40620214215678
C         7.88518929169296   -2.27189293361637   10.29768288206867
F         7.86921664013672   -3.54847503367431    9.90732888713860
F         7.44767796719903   -2.25086184980655   11.56736591882590
F         9.15184014329020   -1.86866376824331   10.31183645737591
O         7.46678112199354   -0.23014116303667    9.17726548337839
C         5.78520956633612   -1.90410612754739    8.99407016576416
H         5.49861783382062   -2.90331439474628    9.27406391858137
C         4.94689262062586   -1.12248171608578    8.19514931826588
C         3.57850224094134   -1.73825424179218    7.83816476968709
F         2.96095842789786   -1.07978454752458    6.86589131255027
F         2.76885901351695   -1.71547460157515    8.91126165674061
F         3.68135042227680   -3.01690623357986    7.46518365865213
O         5.15551703822991    0.03366600950621    7.76885126374106
N         5.69014291586410    1.91663915954240    9.47129195565574
C         5.78973773105859    2.09088428360810   10.92945136653459
C         5.29702777799549    0.84089609715393   11.65688489034683
H         4.35808421852202    0.48608578401830   11.24378543793340
H         5.16717720035061    1.05189525224110   12.71448410327414
H         6.03199582057928    0.04781327816428   11.56039545576668
C         7.25188633943580    2.34691730706234   11.31163765682040
H         7.85156936259987    1.49866755968688   10.99177247653622
H         7.35391223820099    2.45847386184390   12.38682120075174
H         7.63639237277878    3.23223286369918   10.81295924444965
C         4.87880953026525    3.35059505371285   11.18663681525793
O         4.38024830006295    5.12690449217187    9.58527131313167
C         5.38051149648068    4.34449801636741   12.22358567817002
H         6.37394767949994    4.70891378685207   11.98328553944145
H         5.39294849210255    3.88856742496678   13.20907351813525
H         4.70499705883131    5.19698970208915   12.23854122774552
C         3.41667945634646    2.99683459339517   11.47637667058886
H         2.82464015895056    3.90797005236796   11.41188998083974
H         3.30605217223771    2.58015801674723   12.47213220912339
H         3.03682140168029    2.28908435658383   10.74411906527374
N         4.87520711933061    3.98088746873189    9.85193944373000
C         5.29682113545180    3.10376344535313    8.97333808648796
C         5.41082808770023    3.31828026791286    7.55094131104269
N         4.90998203562629    4.44014523932014    7.06551595397923
H         4.97854812957012    4.67038334775454    6.08721873977452
H         4.52053158744085    5.07901465157449    7.78110598640381
O         6.00776064626187    2.42284261422694    6.89558340690005

