39
CSD_code = EXIGIB | q = 0 | S = 0 | Stoichiometry = C14H12Cl4N8Ti | MND = 6
Ti        9.56249511527554   13.17675566883709    3.87361998377290
Cl        9.07175570431414   11.07431819789861    4.07406284044727
Cl       11.65678610090247   12.98500588784677    4.72987085294429
Cl        7.55543261989429   14.08133198847528    3.48867856490497
Cl       10.14954277428674   13.06061597637600    1.79873534956008
N        10.10486487564748   15.93274712435621    5.02925936099060
N        10.13984825500430   15.19113422641470    3.94177843950885
N        10.74658760391149   15.76268840082777    2.98375135824591
N        11.14467342271252   16.94017071820965    3.44104227355950
H        11.66956885757944   17.57476516949435    2.85939071247901
N         8.01718249004018   12.70987129407792    6.22472966067603
N         9.04495725304992   13.48636165879004    5.95330528494054
N         9.66332140888833   13.84852398117727    7.00366287124109
N         9.03068116439689   13.28812920203053    8.02526187008319
H         9.35627013793565   13.40614176401662    8.97187046436512
C        10.74381192010850   17.04844324055908    4.73491740862054
C        10.97950284737039   18.15798226905647    5.63047673410617
C        11.51489175861382   19.36650969807647    5.18544149273090
H        11.75704783291137   19.51281024471971    4.14316965037109
C        11.72722067716787   20.39518679675824    6.08399984171646
H        12.14037436599632   21.33058656414348    5.73855431810553
C        11.41144287809542   20.22897195773467    7.42309955199657
H        11.58149347259791   21.03627872977749    8.11909053557225
C        10.87761305194129   19.02907162902724    7.86843488264538
H        10.63270462562745   18.90307440273137    8.91198492309048
C        10.65995253410412   17.99504950387766    6.97967910072916
H        10.25193672373131   17.04871055144288    7.29736545104622
C         7.99029148605453   12.56000190447274    7.53356993747150
C         7.04878920888464   11.75329318571528    8.27254535568408
C         7.00781459073013   11.74962482152003    9.66692188514643
H         7.67825426991925   12.37279587490841   10.24095332548679
C         6.09377046526802   10.94712586113271   10.32275750012166
H         6.06119354544529   10.94404047665608   11.40176824682285
C         5.22213789258108   10.14750241298079    9.60002603854914
H         4.51299310614711    9.52148674646111   10.12017897825672
C         5.26016460937836   10.15019865187042    8.21389276953691
H         4.58147254476091    9.52602922132028    7.65382130747459
C         6.16757403351223   10.94897780934133    7.54647677371166
H         6.22348377514578   10.96558618679514    6.46935410332739

