30
CSD_code = EXINCR | q = 0 | S = 0 | Stoichiometry = C13H12CrO4 | MND = 9
Cr        2.19211990136481    5.97492459703734    4.92368929528043
C         2.72101519249118    6.92699734667481    3.46250211086632
C         3.99037485052234    5.75134905717420    5.08619174192547
C         2.44101631516815    4.58431755222019    3.77590279663123
C         1.90535070618471    6.19859802366964    7.14886440391894
C         1.23021103185567    5.05075780083077    6.72765809515445
C         0.25344492733820    5.11870920779045    5.71870462196347
C        -0.08055981095327    6.34158221470145    5.13070874534591
C         0.61771644535833    7.49127411502135    5.54274630640011
C         1.56619736719342    7.43671742686700    6.57232889295165
C         1.46832344118700    3.62535808142453    7.15354104823654
C         0.61297740846882    2.79174445359152    6.16966707597728
C        -0.37520018866532    3.77470249916220    5.51302410084153
C        -0.06933632273444    1.60243583955153    6.82823774576889
O         3.11362590477737    7.47740673627701    2.52511164290429
O         5.13366211778379    5.58905017249675    5.12977421485991
O         2.65343320864550    3.73091609567607    3.02769618636939
O         2.81626254755136    3.24289539829779    6.98087312352733
H         2.60639252114896    6.16205937786267    7.97681369680653
H        -0.87979467985911    6.41239803531260    4.40356183622010
H         0.34224856495025    8.45390194666510    5.12759764288405
H         2.01897292399422    8.34827375720293    6.94174793015262
H         1.15518402140481    3.45910779817557    8.19968781042112
H         1.31438912652614    2.43148527305202    5.41182082312393
H        -0.54142794011421    3.54557379594808    4.46018963133751
H        -1.34419670891133    3.73910490197922    6.02363826971568
H         3.38770671479837    3.76026222407334    7.55797290820725
H        -0.75570901352441    1.93167734187027    7.60732794166962
H         0.67333017885692    0.94585337041131    7.27374353024583
H        -0.63103075280845    1.03516555898257    6.09007583029318

