57
CSD_code = EXIQEH | q = 0 | S = 0 | Stoichiometry = C24H28N2PtS2 | MND = 4
Pt       -0.03752228138339   13.32067891890542    7.49760924220839
S        -0.70541084350191   14.99021223750890    8.88888739457770
S         1.90625709793394   14.44988363022447    7.16575213081254
C         0.61225514669420   16.13626683032041    8.88715399505286
C         1.76097245436651   15.89811416183383    8.13043013696254
C         2.79999997913590   16.82424917347920    8.14297362497104
H         3.68137039663709   16.62428295359969    7.55173190176609
C         2.69400580022424   17.97281655174001    8.89826988519536
H         3.50299099562573   18.68823754233450    8.90352840856541
C         1.54932828215117   18.21062862207837    9.65119500805005
H         1.46803867012247   19.11115836464703   10.24176901854247
C         0.51528582258482   17.29864957489511    9.64669513663085
H        -0.38045076488510   17.46753255123041   10.22577269753160
N        -1.71670559211971   12.20956560671094    7.69604215143219
C        -1.73166149992285   11.06094552004418    6.97122649173616
C        -2.83661072005947   10.21149612204439    7.00984226986650
H        -2.83549992986457    9.30409408536428    6.42679673382874
C        -3.94440097570290   10.51223651536752    7.78665663954420
C        -3.89488862848706   11.69859861908510    8.52437721275202
H        -4.71408430000037   12.00107854957348    9.15339534607645
C        -2.77898474766911   12.50190531758856    8.44776787240983
H        -2.72519029609438   13.42417822480904    9.01101893202581
C        -5.11360168692021    9.56974048777110    7.79230310007870
H        -4.75667463498487    8.58521110134310    8.11138900283043
H        -5.46367040965136    9.45678405500692    6.76113637268940
C        -6.28862904317812    9.98264852988507    8.67327922160024
H        -5.95823929083511   10.06777717089907    9.71071044243929
H        -6.66366727739848   10.95672634387000    8.35219806161135
C        -7.42480855817717    8.96443900892437    8.59566602830685
H        -7.05721579030482    7.98599549335173    8.91374113452681
H        -7.75805717886767    8.87220672378361    7.55920760248286
C        -8.60391622704394    9.37031772962069    9.47089076272474
H        -8.29866791243836    9.44498410262259   10.51223628522468
H        -9.40328093299556    8.63684292997495    9.39988074014990
H        -8.99599033119172   10.33583817917562    9.15909009883286
N         0.42055989087992   11.77077996089144    6.28202363759365
C        -0.53655862337674   10.81552168100811    6.18379729040227
C        -0.35179391370478    9.69058895263112    5.37452996443493
H        -1.13191188123798    8.95144873192668    5.32071755395658
C         0.81456744577685    9.52502126855147    4.65328612245492
C         1.78412473295793   10.53143763020903    4.77573941451766
H         2.71496214333736   10.45668688115788    4.23634628246603
C         1.55029928790255   11.61571891966334    5.58529582682866
H         2.28862538218153   12.39929404442053    5.69132594735327
C         1.09077211814593    8.35266559731968    3.75832808766009
H         2.07212587689900    7.94834071045622    4.02436551045696
H         1.17379715521392    8.72393276315133    2.73161372926120
C         0.06080963251369    7.22779154733854    3.80037674921348
H        -0.04498011415607    6.86646475968575    4.82606101498864
H        -0.90975373084586    7.60141836431089    3.46626593905878
C         0.47554660227238    6.06336453154641    2.90270191203845
H         1.44799272409791    5.68565397425900    3.22646195262338
H         0.58366998979223    6.41955410340468    1.87573885505215
C        -0.54330292978187    4.93114943606510    2.94079275043616
H        -0.65164992251633    4.54844772297921    3.95347570982748
H        -0.22904324642463    4.11295941722380    2.29773723003986
H        -1.51603341172778    5.28003747218759    2.60039743529756

