21
CSD_code = EXIWOX | q = 0 | S = 0 | Stoichiometry = C7H5N2O6Tc | MND = 6
Tc        6.44928529498666    1.03174836156350    5.89202223490848
O         4.61048750221890    0.28765596832933    5.18654194214762
O         2.58610519855874    0.85257523491472    4.44852339940306
O         4.89091064305946    1.30241313233278    7.64870648717569
H         4.16614315347745    0.79560034439412    7.24971190861021
H         5.09505073304041    0.89133899797361    8.49374239160487
O         7.38582624697725   -1.66495931283602    7.03372089479442
O         8.70896469955693    2.52946924720430    7.33327882226856
O         8.19226779295663    0.59196849631562    3.40788512013141
N         5.52025301827810    2.76083579923700    5.11801994681501
N         4.69778255784058    4.63795761639974    4.36292484892445
H         4.62698114245041    5.61292673490766    4.11766158287783
C         5.75306166115976    4.03757079071737    4.94965373735302
H         6.65456443106269    4.54358255403360    5.23343543588927
C         3.74382846094222    3.68436298857462    4.15023707610070
H         2.79778036287696    3.88812064315697    3.69558014543852
C         4.26954517087788    2.51622237797968    4.62347839903679
C         3.74415338529983    1.10084054553030    4.73184118478677
C         7.04944274422171   -0.65524405321973    6.60849644781452
C         7.88952338577909    1.94430663881118    6.77610339474246
C         7.56174241437701    0.75930689368030    4.35263459917719

