32
CSD_code = EXIXEO | q = 0 | S = 0 | Stoichiometry = C13H8N3O7Re | MND = 6
Re        1.76087496902101    5.70116686523827   10.24634187868571
O         2.61194103179582    7.22555609157721    8.95949056422408
O         2.32550157572728    8.16726436995124    6.96259863945039
O        -0.58139486877380    1.56707909939629    7.19301446565946
H        -0.99621699302524    0.74315690202098    6.89162099535375
O        -0.64201714221364    2.08701234629165    5.02180388838709
N         1.21991608692807    5.06070267475299    8.22986350370003
N         0.06451974399749    7.06530287027535    9.98981695676675
N        -1.79957036336859    7.97965030212895    9.30445966580539
H        -2.73763062745281    8.07415713349119    8.94993019896591
C         2.22375469761298    7.25406915337521    7.76341594227643
C         1.52185811798794    5.95682354499070    7.28487639008959
C         1.23699778060396    5.75844057888974    5.94007131344561
H         1.50954725062884    6.53681706264040    5.24398336651083
C         0.62518470131907    4.58399423460750    5.55429872286164
H         0.38425236114570    4.36879350922814    4.52418730630319
C         0.31431339863766    3.64533565018876    6.54105156750656
C         0.63012787663396    3.92680536583130    7.86491485705937
H         0.40284973990488    3.21465483019943    8.64742136490062
C        -0.34304921192648    2.37200858617259    6.15185321700587
C        -1.13994096858962    6.82847452963663    9.52341713794747
H        -1.56082493560877    5.85608352102807    9.35054337173555
C        -0.96349084477011    9.00223777083479    9.64816105680606
H        -1.24318317034666   10.03066874023132    9.56085931247687
C         0.19066316636665    8.41951970542479   10.07506324725852
H         1.09784918565858    8.87773778652351   10.41693127567716
C         2.30419991249695    6.56874247710114   11.90828995249907
O         2.64174925264848    7.14250847638888   12.83684417399147
C         3.37096948344430    4.60401272083791   10.22291321831647
O         4.32962517441833    3.98759683130609   10.14542447576821
C         0.73573841439332    4.35655932970368   11.19977489506496
O         0.08108520470347    3.55806693973603   11.70836307749871

