82
CSD_code = EXIXIS | q = 0 | S = 0 | Stoichiometry = C25H52OP3Rh | MND = 4
Rh        4.99875394834510    2.30773353112290   15.54842741482924
P         3.33722902353348    2.27669955324429   17.06072246583658
P         6.78635046232758    2.94438790530480   16.85044844044041
P         3.87922292935589    2.33541297815422   13.53228509726088
O         6.56168842924472    2.23214287401882   14.24469073129633
C         6.95453815442344    0.99769916638087   14.08235881559740
C         8.02943303007602    0.69805634637398   13.22603641550371
C         8.44981386310980   -0.60210050472308   13.04467328715731
C         7.83303611244537   -1.66431732545311   13.69444599054619
C         6.76918254062240   -1.38026024759512   14.54245813445135
C         6.33824354574797   -0.08591351766722   14.73737598187826
C         8.31072114850148   -3.07513326103916   13.50648461163658
C         3.68403419528531    1.40841641142518   18.66316259349163
C         4.34081874213841    0.06018613495108   18.40583475880043
C         2.69536789670999    3.87160140742471   17.76076269196733
C         2.22210954423492    4.81634711412403   16.66534433731932
C         1.75189085007641    1.44168559904079   16.55151997958291
C         0.73914883421461    1.05337517175802   17.62144709355250
C         7.32969047352428    4.58379721885519   16.18677880204961
C         6.29182911666332    5.66312028125906   16.46900677039535
C         8.40562261390248    2.04945819368932   16.74306295727138
C         8.39762871855385    0.68303391599950   17.41514904207987
C         6.71990350223664    3.29553102321028   18.68160540400113
C         7.92306107769628    3.96703049666775   19.33073234812423
C         4.01612159986130    0.82369071945870   12.46831183470992
C         3.25665816120730   -0.36986988912193   13.03200192758428
C         4.67489842455474    3.54696115648793   12.38442787421777
C         4.64641069413727    4.94807325416809   12.97639305256149
C         2.07533569023000    2.75752311969425   13.30103410312323
C         1.58314545812414    3.06511213316508   11.89262755026832
H         8.51895732371625    1.51196543033260   12.70845726823061
H         9.27938835454439   -0.79852463214649   12.37786097443569
H         6.27134012225211   -2.19163373073110   15.05910552357610
H         5.48947766366455    0.13804040581315   15.40005467840452
H         7.47187641781227   -3.76938431102284   13.48971283860230
H         8.86552407194037   -3.17511102703550   12.57586566200234
H         8.97006491281540   -3.36774380577053   14.32596812385865
H         4.35563845495253    2.04518439875866   19.24064803053843
H         2.76175087294494    1.29480168016290   19.23565946545227
H         3.67680728818435   -0.59117116894621   17.84010274387338
H         5.25421397892715    0.20644468898192   17.82762726361451
H         4.59815769036610   -0.43803608680894   19.33952400313203
H         1.90066561529999    3.68117740126908   18.48595436925932
H         3.53481954767763    4.32599215600110   18.29405907190538
H         2.09419562068427    5.82694075813032   17.04965474140899
H         2.95885682567568    4.83794490538901   15.86103694167874
H         1.27045807560563    4.48831869275841   16.25257048001114
H         1.28497772573315    2.13483522167159   15.84927198533325
H         2.04438176259550    0.55654792312851   15.97870470099149
H         0.50198456883001    1.89384746222320   18.26999522880608
H        -0.18504748053891    0.73054036061889   17.14334114157257
H         1.09903071337343    0.23002445860387   18.23291573586283
H         8.30706367579481    4.85932532216200   16.59010445211847
H         7.43372158072884    4.43608573144843   15.10922342838531
H         6.29804183364712    5.95213157360923   17.51810041792773
H         6.48133868981506    6.55275494772916   15.87047837280593
H         5.29835580847669    5.28173543549418   16.22682318571434
H         8.63869932745985    1.93320093630421   15.68354615049517
H         9.17537503452079    2.68798868035164   17.18507278428375
H         8.17355404380951    0.76433339592529   18.47722941079950
H         7.65697292730561    0.03726571951880   16.94857252667537
H         9.37123003074242    0.20738396312455   17.30726041245943
H         5.82991808006920    3.91108899281190   18.83866692402768
H         6.53785556360758    2.33594866967110   19.17219696879608
H         8.80837807585959    3.33976435622257   19.26952452198829
H         8.14392259945766    4.92527050721925   18.86805562832194
H         7.71518555646484    4.14552744917454   20.38561933322283
H         3.67033168749546    1.05796255878756   11.45823416880032
H         5.08052598728974    0.58337659676316   12.40940506578614
H         2.18088931944457   -0.20915831993954   12.99050569402522
H         3.48877520939948   -1.26941064366502   12.46448127987786
H         3.54228676835622   -0.54011881294950   14.06863206532671
H         5.71047300198420    3.22237544405203   12.27045649131895
H         4.19146629787977    3.51176495351184   11.40586879029335
H         5.10812872605468    4.91765078550431   13.96274749220939
H         5.20117017549322    5.64709735563356   12.35248002450097
H         3.62575319446911    5.31399167026853   13.07931865408372
H         1.51593367747570    1.90678654297176   13.69562853273115
H         1.86828318207506    3.61085853354553   13.95107950394561
H         0.49933867614754    3.17878145172579   11.90439057010114
H         2.00859320584968    3.99107703665734   11.51522906728729
H         1.82502915490434    2.26227702452103   11.20056660167071

