70
CSD_code = EXIXUE | q = 0 | S = 0 | Stoichiometry = C33H34OPRh | MND = 6
Rh        3.16722038767288    2.21592948631716    0.75097488608246
P         2.94739433994722    1.65202167343125    2.94341480574791
O         3.40912426072313    3.96560619194199    1.71910940773530
C         3.51449707718876    0.28835736614241   -0.05137428658902
C         2.15132702122970    0.60239322246147   -0.12474324149921
C         1.43329980835900    1.02256190057744   -1.38876908277192
C         2.17255220510507    2.12640494860677   -2.16928819365773
C         2.98155457889531    3.02404384411179   -1.25886925912907
C         4.31789439300068    2.81407271396422   -0.97120102909404
C         5.13059102222734    1.63972752990000   -1.46708469200650
C         4.43045849513306    0.28225871811201   -1.25976934406183
C         3.74125365546503    5.13951969523056    1.21977914799624
C         5.06922845847025    5.59494518198798    1.27132592781553
C         5.40837714264279    6.84161411836945    0.79312655885636
C         4.45286560272347    7.68941410505551    0.24214870393952
C         3.13737086560125    7.24972742640851    0.19569315975524
C         2.78204591905482    6.00440605321118    0.67213241549702
C         4.84463583559362    9.04293385322705   -0.27482206343399
C         2.87914094372944   -0.09089749281611    3.49418897446911
C         4.00811500851461   -0.79910321746148    3.88869152751067
C         3.91208079626804   -2.14326989638493    4.20470238577176
C         2.69296152776222   -2.79432143028181    4.12121061995129
C         1.56429245185765   -2.09703029278819    3.71977612309126
C         1.65856586820043   -0.75581144729670    3.40265485953892
C         1.53611349783233    2.34182165985841    3.85861500521721
C         0.71394901901322    3.25772470687587    3.21408642888462
C        -0.37174379470697    3.80432074671631    3.87452652844565
C        -0.64604388682476    3.43114994256935    5.17993640432119
C         0.16175205135670    2.50557787762128    5.82231091286073
C         1.24877703587814    1.95759282901868    5.16605593690579
C         4.42664027696828    2.27942813512236    3.80064364077879
C         5.63049116043039    2.10977350263267    3.11938583766842
C         6.81264466355659    2.57393883578666    3.66164201659081
C         6.80018980453007    3.22562024249547    4.88564411330805
C         5.60425245568116    3.41268717857985    5.55629722144927
C         4.41740339522958    2.94144197626290    5.01903535536479
H         3.81565654963603   -0.40252191012924    0.73855278764201
H         1.49129374944182    0.11425447462188    0.59614538451346
H         1.27890192630463    0.14707640485596   -2.02986907987531
H         0.44419242067573    1.39136585333637   -1.10459315177842
H         2.83448083589463    1.68755098596247   -2.91704352286943
H         1.43808863264789    2.73206382766890   -2.70408568133949
H         2.60036987058954    4.03940780863395   -1.15320056111931
H         4.91780957430880    3.67741117658854   -0.67956349860195
H         5.35998035599037    1.78717127052605   -2.52835259304649
H         6.08272322245086    1.63549383698315   -0.93059826305268
H         5.19233900325501   -0.48848772559304   -1.12607254611477
H         3.85349919174957    0.01066541752633   -2.14488566315311
H         5.81773569038124    4.94224813006506    1.70127471090705
H         6.43877400799912    7.16929211594505    0.84321142994684
H         2.37499459225215    7.89428257040329   -0.22280162660940
H         1.75017030253544    5.67842251298414    0.63533663485601
H         5.22193747634835    9.66643278232190    0.53623510820297
H         5.63395194970381    8.95621376143391   -1.02148960758538
H         3.99330777175390    9.54624670372715   -0.72742073628292
H         4.96186209628154   -0.29450730989050    3.95642008322734
H         4.79316466594719   -2.68552319644134    4.51635286001604
H         2.62144922478144   -3.84350049509876    4.36710094108329
H         0.61168946916618   -2.60230327178640    3.65264130122273
H         0.77990022078558   -0.20503545555197    3.09240310435731
H         0.94954056376041    3.53687930486368    2.19415611228199
H        -1.00691483802099    4.52003178752067    3.37308790082316
H        -1.49315102852145    3.85687344809825    5.69797147623061
H        -0.05843604153033    2.20946700910835    6.83807798352300
H         1.86956739393403    1.22258140968306    5.66148398139484
H         5.61607670231641    1.63011314871811    2.14348971252335
H         7.74391664605460    2.44316771222978    3.12868554354258
H         7.72140899463036    3.60008910099736    5.30780797645982
H         5.59273762249250    3.93658755358002    6.50128061501243
H         3.48670783968593    3.11000737055708    5.54067317034231

