89
CSD_code = EXIXOY | q = 1 | S = 0 | Stoichiometry = C24H60P4Rh(1+) | MND = 4
Rh        3.42043807740617    2.23459483799691    3.39255792153336
P         4.89811338455505    1.17885714676685    4.86329923119399
P         1.85403767585499    0.50766259616117    3.55171464142295
P         1.85642063591841    3.95553163826909    3.06812828819388
P         5.07222225386574    3.28476423535323    2.09561993643138
C         5.57433688375789   -0.54796232621688    4.90702523107807
C         6.45850105874754   -0.92480602763420    3.72741291497266
C         4.09639922436251    1.14959142448152    6.53321964188621
C         3.41598081719041    2.47231032442423    6.85339548093793
C         6.39339510296706    2.20267235519963    5.26516675215715
C         7.40991178181659    1.64238783190966    6.25165210835217
C         1.09647192547023   -0.34421404073188    5.01519887822969
C         0.22919000621027    0.53896803492956    5.90014452995072
C         2.60508625779852   -0.99938685738608    2.77896291619516
C         3.33871938350032   -0.66439772558292    1.48873547484818
C         0.39771980449290    0.73109354108108    2.42274371250969
C        -0.67297690884232   -0.35212195181341    2.40033637372704
C         0.52868556005212    3.89016968915256    4.37072788817094
C        -0.56643129466932    4.94827654159423    4.32828292631696
C         0.95678155849138    4.64013615354745    1.58660497985864
C        -0.07823776894404    3.76667243147518    0.89405967222879
C         2.65572322969186    5.56255652490734    3.53542489348825
C         3.53628442623222    5.44926787823229    4.77101533321286
C         4.33536628375425    3.70099260350018    0.44534452577960
C         3.41944531145674    2.60915423940145   -0.08731645818490
C         6.36030361755331    2.05713739107685    1.55008593946955
C         7.49746376522754    2.55797944787393    0.66873331963999
C         6.04200883255628    4.86826713493743    2.25021149088214
C         7.05853862762955    4.99301230671758    3.37486996443222
H         6.12793911274942   -0.65302602173708    5.84288229574949
H         4.71919804621796   -1.22607714613437    4.96310383998152
H         6.76905671739874   -1.96438075793226    3.81204359180589
H         5.92620793944585   -0.80396453591272    2.78766310370841
H         7.35582731762979   -0.31040903305286    3.69980217126395
H         3.35834954697098    0.34660372936260    6.53281634785870
H         4.84609776845024    0.90691307286272    7.28920079610573
H         4.14557582931647    3.24999053946785    7.06692808511524
H         2.81635789141366    2.78189371150024    5.99184860081311
H         2.76751067773801    2.37435059346824    7.72173509660882
H         6.89628257676583    2.43571002127883    4.32658014507995
H         5.99156222222039    3.14356082693460    5.65309753256635
H         6.95335364173177    1.36779312641729    7.19914919886055
H         7.92555984152811    0.77519042390890    5.84809220283481
H         8.15841384964099    2.40545091051481    6.45761622248181
H         0.51221804833513   -1.18356305414770    4.63117004902341
H         1.91689799028140   -0.76664730990501    5.60060150867521
H         0.79245965885620    1.39068704704157    6.27212440104019
H        -0.63758740293587    0.90688941836481    5.35537577614952
H        -0.13152767541553   -0.03050042600201    6.75451628572883
H         3.30333472947971   -1.42813761146784    3.49875058302147
H         1.82287024808071   -1.73955327623149    2.59823834694770
H         3.95698831113713   -1.49996012178369    1.16668755239282
H         2.64154974730645   -0.43541358844763    0.68612119664433
H         3.97655456128764    0.20857327345635    1.65802203333347
H        -0.06538448709760    1.68729576058018    2.66607715002171
H         0.83200735740802    0.83270943424447    1.42369660864245
H        -1.21729486164156   -0.39867142059868    3.33961062572932
H        -1.38997008149463   -0.12224604118072    1.61419616038269
H        -0.25816728150475   -1.33410638061243    2.18782456842227
H         0.07649791379797    2.89783914123962    4.34207550565075
H         1.06066068730280    3.96491455197477    5.32384679890868
H        -0.15997382134134    5.95596644061060    4.35959603277947
H        -1.18848542242317    4.85119512266677    3.44296519690530
H        -1.20790788741409    4.82679955850016    5.19927541092668
H         0.48261501495061    5.56373917991613    1.92819888775916
H         1.72288880494193    4.91902841595680    0.86038524344849
H        -0.87182609510536    3.46709861315509    1.57412300233676
H        -0.53383867475878    4.32967011309783    0.08128288491994
H         0.37343405318629    2.87543040400093    0.46885693122219
H         3.25095883491991    5.88196458899353    2.67667521815506
H         1.88050424840248    6.31604831920379    3.69101131102837
H         2.93520654630254    5.36007197975318    5.67271147290899
H         4.17585678369563    4.56592417005456    4.68752257587999
H         4.16640651290103    6.33016954775777    4.87539665015563
H         3.77701197774730    4.63131912021680    0.57383360483708
H         5.13947050225019    3.90102681972795   -0.26619406363549
H         2.74112627863704    2.27904619473072    0.70460733247919
H         2.82933387825450    2.97757847400351   -0.92397772442961
H         3.99263529237615    1.75286498371760   -0.43441385807878
H         6.77310932268488    1.58363945537650    2.44183445970473
H         5.80607025012589    1.28263011741352    1.01172120895048
H         8.11099654959112    1.71004396653835    0.36974745320390
H         7.13067232382699    3.03185974653883   -0.23812393404537
H         8.13762163857215    3.26076968073981    1.19435098154961
H         6.54514540271693    5.00321086819201    1.28932924951278
H         5.30989927161203    5.67231416596371    2.34795372854909
H         6.58165497518354    4.94816270605011    4.34939113334553
H         7.81702496391750    4.21608143287161    3.31965505358409
H         7.56298851776826    5.95436957706395    3.29463166558598

