89
CSD_code = EXIYAL | q = 1 | S = 0 | Stoichiometry = C44H42P2Rh(1+) | MND = 6
Rh       -0.36631867866156    1.60554911315917    5.71325426481519
P        -0.61695561385026    3.89812431468020    5.81431365844861
P        -1.68220063209060    1.39461522491068    3.82078476759211
C        -0.08947417627891    1.43998925042667    7.87497640167706
C         1.14903002548861    1.69913354107470    7.32438665913706
C         2.23879797757093    0.66552910504091    7.16871753285735
C         2.20204010393826   -0.02793690786311    5.79424350672211
C         0.81482124101265   -0.17257258660533    5.22163547319541
C        -0.29592563840705   -0.60237352334520    5.91701859138005
C        -0.27259583528050   -1.05469127252307    7.35788014830507
C        -0.56767681042353    0.08989696298790    8.34590161027325
C        -0.54150212705232    4.73727413361262    7.44448973285393
C        -1.69950100756915    4.93531418250924    8.19216462632059
C        -1.63435033453198    5.52204784175147    9.44306330493790
C        -0.41340381327241    5.91036179093688    9.96892959632474
C         0.74395875447473    5.71185407294737    9.23491660228804
C         0.68351214442071    5.12655739994442    7.98342481481429
C         0.82483323214443    4.63089594824441    4.97877495700196
C         1.08892911164810    5.99832453017545    4.99439855949948
C         2.20680030610533    6.49166515199242    4.34539583478764
C         3.07512689499032    5.63012453524225    3.69320792007446
C         2.83629406986475    4.26526802771086    3.70296830783527
C         1.71685462318271    3.76928082086385    4.34570972585750
C        -2.09351173382364    4.70749980172847    5.10500810788343
C        -2.05995338175680    5.82113927300730    4.27609422807696
C        -3.24248421118042    6.39423807290242    3.84188225948851
C        -4.46324516860659    5.86505393928770    4.22419906860290
C        -4.50337934971602    4.73972465192660    5.03046190780202
C        -3.32489720283180    4.16346572164570    5.46375449120957
C        -2.01587628374819    2.80618135859024    2.70580520482156
C        -3.28799102941933    3.18845758488093    2.29821348171928
C        -3.44487489001651    4.23523539425535    1.40688266065613
C        -2.34218951420702    4.91372770074193    0.91720690116856
C        -1.07327436555263    4.55841630445380    1.34265627530685
C        -0.91316077438592    3.51577633365623    2.23515891860896
C        -1.24524523496512    0.10069517004918    2.59348541116551
C        -0.37490407072184    0.38500620488662    1.54422155893171
C        -0.00058919207931   -0.60555278158099    0.65426426795038
C        -0.48044951049107   -1.89590459285423    0.80376096524506
C        -1.34137659458353   -2.18971212470581    1.84779436189076
C        -1.71931924438044   -1.20203219006639    2.73895455333896
C        -3.32133629210618    0.82138699278539    4.36868706010475
C        -3.57587597514671    0.76555608639271    5.73570837455077
C        -4.80196012426027    0.33067990082169    6.20489708007717
C        -5.78311085566104   -0.05854811335702    5.30752723988801
C        -5.52879468939477   -0.02935894375071    3.94501017219604
C        -4.30243191360277    0.40232122593322    3.47255015589921
H        -0.62984801442834    2.27443862332689    8.32669986633147
H         1.50419425163039    2.72728572116229    7.35609753275043
H         3.20702550405886    1.15500286661845    7.28382278212478
H         2.15108548122434   -0.06723906281406    7.97107958764644
H         2.80976375841028    0.54417721996993    5.08868149197607
H         2.65296963036797   -1.02294125972953    5.86581732735710
H         0.80262387445804   -0.26954032943031    4.13444813220072
H        -1.12667537806528   -0.99556661917733    5.33483987320265
H        -1.02613982556456   -1.83184086424397    7.49406684891946
H         0.69672279236105   -1.50530060531647    7.57210503728071
H        -0.10352500758930   -0.12413857134234    9.31401147397433
H        -1.64536547030261    0.14497921735205    8.51874845273618
H        -2.65901168048569    4.64379297649863    7.79109730201389
H        -2.54118551723402    5.67760339410394   10.00757079012214
H        -0.36425648923589    6.36902527221361   10.94418121044147
H         1.69910654253155    6.01560485886398    9.63572205456536
H         1.59541503124119    4.99402849925081    7.41765474992876
H         0.43542117060774    6.66976244134302    5.53384559565331
H         2.40578760332578    7.55259532992201    4.35481194345630
H         3.94550242356902    6.02180044075239    3.18976027987327
H         3.52415514961712    3.59220459999701    3.21295299552776
H         1.52213551207686    2.69551152907124    4.37274108840421
H        -1.11832438015599    6.23554837155868    3.95119162983677
H        -3.20757976983804    7.26176424578945    3.20052283956494
H        -5.38053443819922    6.32268360702458    3.88733451376261
H        -5.45078892294632    4.31017597790015    5.32048608145504
H        -3.35475247080428    3.27437988146856    6.07946854686986
H        -4.16181552771854    2.68572690854378    2.68274163555594
H        -4.43758860598821    4.52047892516886    1.09323988343791
H        -2.47190447346550    5.72311755595399    0.21551574677128
H        -0.20751062284272    5.09394929658650    0.98219598627262
H         0.07748173781594    3.25803541253025    2.58308404726376
H         0.00284179578376    1.38722656622268    1.40972358838132
H         0.66761273317070   -0.36704965940748   -0.15931695795104
H        -0.18813327294093   -2.66746790971798    0.10868670598748
H        -1.72370550636400   -3.19178003002319    1.96969257519804
H        -2.40418605816114   -1.44807933039833    3.53835221544415
H        -2.78831912476419    1.05891751407695    6.43070534357838
H        -4.99377831677803    0.29017335228528    7.26687085458539
H        -6.74166596859618   -0.39725510043700    5.66927944410366
H        -6.28749882707705   -0.35060711324362    3.24756673667539
H        -4.09701353782378    0.39443122064037    2.41096086377116

