73
CSD_code = EXOBEZ | q = 0 | S = 0 | Stoichiometry = C23H43Cl3IrNP2 | MND = 6
Ir        7.00791570138487   10.83812968921171    3.50538156169507
Cl        6.47686381636155   11.41502138560105    1.27301739507542
Cl        6.92418024888372    8.56402922762762    3.01569349553816
Cl        7.54346847761869   10.40339185315396    5.76883173838261
P         9.34629018508639   11.14620039517074    3.07307272414402
P         4.69200920562754   11.10961576122330    4.06157852274573
N         7.08265495986560   12.81886250388184    3.93078213127093
C        10.66150273792032    9.87814414168477    3.61222724046797
C        10.06573920611672    8.96103384857654    4.68110361646060
H         9.13548951838539    8.51336601842257    4.33865050307166
H         9.87803471286063    9.49012679674181    5.61052189129524
H        10.76736840692708    8.15517675513964    4.89279800863569
C        10.99148062918016    8.99384077131506    2.40804704690177
H        11.54251440243194    8.11589714183607    2.74257969514607
H        11.60625222427343    9.50435806864096    1.67232096164018
H        10.06997610581650    8.65067377000898    1.93909907617268
C        11.92132657629807   10.51304377068505    4.20341292893137
H        11.68952713697796   11.07139144205028    5.10751579545967
H        12.44018046871608   11.16599141097042    3.51146267297483
H        12.60749351484769    9.71294731525126    4.47948275708265
C         9.94803632901787   12.04378446666414    1.49855490357252
C         9.65304127642258   11.17581170799942    0.27312730509188
H         8.62429557688471   10.82888208429723    0.28861788884731
H        10.30674531236725   10.31262258286249    0.21287340766566
H         9.79310609098815   11.76541494136859   -0.63185101965659
C        11.43274040700318   12.41119055742117    1.51711296835660
H        12.07602546443551   11.53910830493406    1.45447544061562
H        11.69764509315190   12.99291211896294    2.39803319698476
H        11.64142985811669   13.02865048844817    0.64340678599468
C         9.16468842528892   13.35416596098934    1.36525927264562
H         9.39680078186135   13.80792929851647    0.40254369433689
H         9.43353670569834   14.06918026980943    2.13987570069318
H         8.09348519880779   13.17756981574212    1.38915086745626
C         9.46148899007088   12.50477295861242    4.34312047725234
H         9.44977219024853   11.98517481394535    5.30793568582804
H        10.37681634407359   13.09326709628209    4.26551927370919
C         8.24961289401314   13.37815105111835    4.27641128629507
C         8.32541816334760   14.73192917819708    4.57857705676433
H         9.27051678206240   15.16313192508542    4.86917433949503
C         7.18603115558244   15.51283484465107    4.49834303440535
H         7.22656854052512   16.56806334981371    4.71946455076678
C         5.99357358531859   14.91613170273839    4.12890591992027
H         5.08728347925119   15.49590963870907    4.05088373607467
C         5.96523631174457   13.55380178774666    3.85888351952103
C         4.69364343481945   12.87380447194815    3.46283422910480
H         4.67934271383803   12.79761466720743    2.36973012220252
H         3.82298680118856   13.44269342554399    3.79229406885336
C         3.29682884481885   10.27306215547535    3.07052763031981
C         3.84304975810451    9.83002132957308    1.71264147994483
H         4.73025221644854    9.21187489689308    1.83050253497144
H         4.08849271507234   10.67657122450292    1.07860360896127
H         3.08732873732528    9.23733433432843    1.19872084141771
C         2.09867645025716   11.18689188626903    2.80754169757880
H         1.35898511755674   10.62264834850164    2.24041413596957
H         2.38725410649330   12.04519835539026    2.20512548480497
H         1.61903008587678   11.53955552785232    3.71312860767053
C         2.87970427288449    9.00191658675877    3.81277847448881
H         2.26868393498854    8.38306642117855    3.15698290372111
H         2.29340791100229    9.21225364657864    4.70260455856674
H         3.76394369447456    8.42715633804423    4.08573111411372
C         4.13328514065268   11.32333063157238    5.87485354900153
C         4.34335492115539   10.00875845764183    6.62996611670445
H         4.24634500751679   10.18486213874715    7.70040544333198
H         5.33916680075134    9.61656763957597    6.44599875832057
H         3.61798848553289    9.25276462326781    6.34957984518748
C         2.68063247457615   11.77561426412236    6.03229897248870
H         1.97291575510431   11.00752406237386    5.73663334160512
H         2.47562829242581   12.68851252158017    5.47622342672724
H         2.50294237001727   11.98867670901749    7.08645811912871
C         5.00981108080352   12.40097880725817    6.52216516168811
H         4.81055227972259   13.38843718887980    6.11126194100828
H         6.06494751098591   12.16827215720625    6.41402004940845
H         4.79375589373866   12.43800417058538    7.58919472697928

