36
CSD_code = EXOBOI | q = 0 | S = 0 | Stoichiometry = C14H16N2O3Pd | MND = 4
Pd        4.98930428549676    1.24434843244722   12.80140868173371
O         4.69969500120669    2.83143043292950   13.99893254406715
O         3.07750109465780    1.41027709424589   12.14968472654125
O        -0.95156627941525    0.16058872224712   10.17016746591886
H        -1.33408836554994   -0.51082065119966    9.59193080525972
N         6.84005049991758    0.94454800488419   13.44434039621489
N         5.34441899365484   -0.25739974972526   11.63031701889416
C         7.41961877234427   -0.27903428653096   12.91359246321714
H         7.24451934666036   -1.10405973533440   13.62053634073799
H         8.50169649301734   -0.18359923101254   12.76023891374557
C         6.75147448974437   -0.60598142136138   11.57024491924016
H         7.21993923003621    0.00195995522208   10.78306383990359
H         6.89032763406231   -1.66578007319324   11.31523635964003
C         4.48568928116752   -0.88006107032510   10.89103452281804
H         4.84122198147346   -1.72359364237490   10.29087513457684
C         3.10683334383904   -0.57203605943990   10.76178520063597
C         2.32267676721355   -1.41223463318779    9.94645222543427
H         2.80206152060910   -2.25820132127829    9.47291378266035
C         0.99045702351290   -1.19547602650063    9.73859621479839
H         0.41140850969728   -1.85752151933094    9.10930044391339
C         0.37073985278429   -0.09163969808590   10.35305575587324
C         1.10065288148037    0.75330736898101   11.15108708406597
H         0.61916223985792    1.59780144794659   11.61704630651680
C         2.48309154733983    0.56155412789234   11.39754138993455
C         5.60265456503269    3.29722689999363   14.75374360598108
C         6.87450646524606    2.77178140549275   14.97989407505515
H         7.48450377823260    3.29604313944559   15.69944932473976
C         7.43773798976654    1.62867695779482   14.39332048528516
C         8.79550186700068    1.19970527740640   14.89259297667251
H         8.76355587971796    0.16860509063354   15.24200525745779
H         9.11853320112342    1.83416736665654   15.71151845085729
H         9.53479351105652    1.26616810054170   14.09460475035189
C         5.23947158962061    4.55503075682486   15.51976279341771
H         4.24876378383597    4.88351847037295   15.21827027358151
H         5.96091448698568    5.34325266108079   15.31836158738207
H         5.24017673757052    4.35444740584410   16.58899388287810

