54
CSD_code = EXOCEA | q = 0 | S = 0 | Stoichiometry = C14H32NiO3P2S2 | MND = 4
C        20.15859263272216    9.12906441340239    7.57007096696098
H        19.41665485526340    8.37163680451157    7.84708896078096
C        20.18907694887366   10.18223018664437    8.67433272595709
H        20.36335069145529    9.71261885805811    9.63983793313484
H        19.23012562582119   10.70356149014010    8.71410660112942
H        20.97873112913919   10.91162769677850    8.50471925746173
C        21.52068812749673    8.47694087159918    7.35444243506553
H        22.28222872752991    9.22178480732827    7.13624800343914
H        21.49427261358079    7.76100750923119    6.53694597270382
H        21.81804492006508    7.94985398410556    8.25890224390356
C        19.23917895766474    8.49978325052211    4.81334469068543
H        20.21830501401294    8.26065413226232    4.38160121715401
C        18.63790892533605    7.26637756318203    5.47643443715578
H        17.74563410314347    7.55230245244339    6.03154240183061
H        19.34046839634907    6.78691734866693    6.15213545476952
H        18.35550807663668    6.54250059671783    4.71479211950204
C        18.29926332015003    9.02433730760485    3.73132841357003
H        17.99630329804693    8.22603322108188    3.05785158774661
H        18.77524450307652    9.80880035699030    3.14819105298348
H        17.40404406485030    9.43441635931744    4.21755715532156
C        17.87514542389117   13.56427566683147    3.81385840551940
H        17.06547320185656   14.13414038688489    4.28291266515938
C        17.22691507666161   12.45685563023307    2.98782642311299
H        16.50815717158340   12.87599630778004    2.28687718923902
H        16.69947959731742   11.77433160250407    3.65918175802793
H        17.96836614745430   11.89877021945383    2.41959188350301
C        18.73171123077883   14.49181396193958    2.95895419746799
H        19.55099042298163   13.94918101452148    2.49289142383583
H        19.14473039572034   15.30880431068181    3.54498012327867
H        18.12093030150022   14.92242956186895    2.16734334821278
C        19.32612879996917   14.24913917721963    6.26663052595731
H        19.95345554573584   14.89595487952169    5.63928418828689
C        18.09788315130416   15.00602352069811    6.76416671410337
H        17.42871672301757   14.31038968453182    7.26995570364945
H        17.55888578744987   15.48845578186009    5.95181879585311
H        18.39456199501270   15.77368040533771    7.47710284157180
C        20.12829112365819   13.73650159211916    7.45806233588367
H        20.39486774981499   14.56139605011437    8.11641944119497
H        21.04587603581652   13.24561700833538    7.14054792491144
H        19.51135417634609   13.03378357183693    8.01780551955256
C        20.34736894071273   12.10609787262318    4.52087860307372
H        20.11047599284439   11.78646804416434    3.50501921890304
H        21.11017849032500   12.88497786551831    4.46164456462234
C        20.84940362412130   10.91186876390643    5.33110113215124
H        21.42022080008499   11.26615007031016    6.19094489190935
H        21.50368730687604   10.27705552263385    4.72900631331845
Ni       17.78716482207302   11.15106263419071    6.21386595270310
O        16.03389731166344   12.06415080100352    6.21630147657337
O        17.27987586140137   12.00671320302620    8.27695835302870
O        14.84984048978452   11.58100043546929    8.32283846709684
P        18.77216389578398   12.79630342798546    5.24781055019380
P        19.45555427039356    9.88830187147850    6.03523823960339
S        16.07985361255803   11.49661659898814    7.59744964239499
S        16.57176959228568    9.56664334383703    7.16605755485243

