48
CSD_code = EXOLUZ | q = 0 | S = 0 | Stoichiometry = C16H24N4O3Pt | MND = 4
C         5.80456386303623   15.41956828770621    3.65297287112682
H         6.00311199982197   16.21330453358995    4.37876663676917
H         6.38025643469410   14.51795172555009    3.91736896044019
C         5.49774121507859   11.04005208876179    0.71895548621499
C         3.85480107136902   14.23361040047578    2.76555957153023
C         5.94500960189689   15.11725571339120    1.22725801455741
C         2.26695377349878   15.04791175259988    4.09346733497276
H         1.28937232847986   15.18820772621836    4.50096565676666
C         6.94114270097757   17.02191141124000    0.65500621937306
H         7.38078433751346   17.76024884888736    0.02020714357295
C         3.43300702660289   15.61210303904495    4.48121777045649
H         3.64518594282500   16.31012283224492    5.26439374717523
C         6.80572395556950   17.03641529294973    2.00028886730401
H         7.09883935654580   17.76819501284844    2.72431947076381
C         1.54530244272443   13.38529666403273    2.33697546881197
C         6.37265783769290   15.42432039396630   -1.21418981650243
C         1.82324211696183   13.44298432839977    0.83429444283708
H         1.07070362856018   12.86991617624413    0.30119376346910
H         2.79933453075664   13.00225798930953    0.61451467154478
H         1.80165474809561   14.47098652943632    0.47784525753787
C         5.01510334687910   14.78657240211215   -1.51245886297797
H         4.96325697604782   14.51152827504052   -2.56157290352928
H         4.20650349949053   15.47990991450478   -1.28939237865203
H         4.88793864500328   13.87657325187232   -0.92004209292802
C         1.68110916228024   11.95067771127523    2.85007764419828
H         0.92263418895669   11.32178531363576    2.39347254802933
H         1.55787586743015   11.91718624204631    3.93081858862542
H         2.65969118538796   11.55125272403424    2.59093327353516
C         7.49710596178882   14.40913138787846   -1.42625728889606
H         7.54045829989528   14.11905454373421   -2.47183897281260
H         7.31384430870016   13.51741138919729   -0.82992574749044
H         8.45709012173301   14.83596242811131   -1.14247867004741
C         0.13537292031275   13.91500750571363    2.60936522835169
H        -0.56814026085292   13.37561318320621    1.98144199212851
H         0.06048746978701   14.97390585619629    2.36954271170836
H        -0.15995610399658   13.75637123509794    3.64367782445268
C         6.57188661077127   16.63593799737488   -2.12804863507439
H         6.41379927658851   16.32726997982927   -3.15757053416739
H         7.58221076896547   17.03122183981517   -2.05586501859951
H         5.85732170996370   17.42364356933216   -1.89712200729156
N         4.40009793333898   15.09822436142861    3.65913924862427
N         6.19631364592794   15.85739197358106    2.33740831155472
N         2.53460423535395   14.21701557881435    3.03607515296579
N         6.40012900387661   15.85017253451967    0.19189668202247
O         4.55659782036749   11.39267077313890    1.57623274144607
O         6.20994016495000   12.09261477947510    0.35857273332836
O         5.67595733136844    9.91548836186522    0.31443514571532
Pt        5.08317699698181   13.30988414027087    1.46090174705755

