52
CSD_code = EXOLAE | q = 0 | S = 0 | Stoichiometry = C22H25ClNPPdS | MND = 4
Pd        1.18533137699925   17.16919636104267    4.86541939379020
P         0.55217219430806   18.35506385406227    3.11116615561887
S         2.13649103308791   18.94133442753619    5.99440435749598
Cl        0.24604049091473   15.39044990995268    3.68619768889938
N         1.81170992763808   15.92620420928263    6.46120489110796
C         3.17102031211675   17.89847130580410    7.08515606030714
H         3.47943868225550   18.52415692708238    7.92462556109753
H         4.06443479560148   17.58984118988131    6.53748550784951
C         2.35423280696504   16.71613418717073    7.57718308386752
H         1.51043862261376   17.11232903303106    8.15337171637441
H         2.95746486763447   16.06983292475472    8.23783279860504
C         2.85399556903156   15.09493011268830    5.85227444970438
H         2.41449399325216   14.50715286437340    5.04152859689355
H         3.29283732388292   14.41204110061452    6.59430491535190
H         3.64922788103362   15.72539452718938    5.43844760352407
C         0.72418872718850   15.07429777031812    6.94275089769669
H        -0.08032268650603   15.69762261335852    7.34430954350424
H         0.32937835194319   14.48776801454845    6.11095380943060
H         1.07798891248614   14.39470928181245    7.73025202649616
C         1.00698233939888   20.10202711679844    2.89933375500762
C         0.52607433489730   20.98903150084977    3.85888827236810
H        -0.07842739141744   20.60548226389868    4.67163000030211
C         0.83969746342424   22.33093947541127    3.77850386087902
H         0.47044917427866   23.01794335765353    4.52538675460009
C         1.63682698482590   22.79351137122983    2.74215202335155
H         1.88582797569323   23.84279657833506    2.68046369995587
C         2.12149777931595   21.91206685259885    1.79085876696286
H         2.74749750453949   22.27356425888270    0.98775193765858
C         1.81157002812660   20.56474028304965    1.86646865028991
H         2.19462901017310   19.87467344512157    1.12689704759726
C        -1.25733266969624   18.44708971137793    3.04332842166587
C        -1.94795518955013   19.08891147199271    2.02058505481714
H        -1.40319415267241   19.54822730978864    1.20682186307546
C        -3.32904039126894   19.15240108978523    2.06357126106598
H        -3.87004506781300   19.64111046052097    1.26624423023296
C        -4.01954891974172   18.59781750276936    3.12987188453682
H        -5.09819647502907   18.64869365091068    3.15595993284703
C        -3.33132871585240   17.99132675040278    4.16863777953494
H        -3.87262484484498   17.57672086574919    5.00629443776743
C        -1.95096976514126   17.91937336700682    4.12930203310952
H        -1.38624392271623   17.44794590547488    4.94350326892528
C         1.25243196594035   17.53289709318548    1.65370669729438
C         2.54435494615699   17.04887411582628    1.86499702980398
H         3.00665394397494   17.19738091786270    2.84899225675048
C         3.20711986521648   16.37782297440008    0.85729260541114
H         4.20577023764893   15.99895214176311    1.01913064816802
C         2.57686621740380   16.17570686341824   -0.36235376462867
H         3.08791458749464   15.64066702167657   -1.14921035332954
C         1.28895240621179   16.63958799498942   -0.56683650812690
H         0.79610451594023   16.46260838143571   -1.51171514104196
C         0.62070202212140   17.32097625252268    0.43794944712763
H        -0.39277897948825   17.66050103881426    0.28412308838187

