80
CSD_code = EXONOV | q = 0 | S = 0 | Stoichiometry = C39H38N2Ti | MND = 10
Ti        3.93171992673544    6.28023277724977   21.28401772022467
N         2.39487908859841    5.30508881232549   21.35003559631225
N         3.98775649376856    6.43761695932641   19.42964071845097
C         3.93511036884235    7.11579187511246   23.53315591108221
C         3.39139376285854    8.09438473692961   22.68126650011554
C         4.40276667125506    8.50157613987169   21.78254363140299
C         5.56626004891247    7.76679174619074   22.08003237168015
C         5.27260697634375    6.90476362581463   23.15720488116231
C         3.07958199797616    3.07528616472052   20.37354839054058
C         3.74208447480949    2.92905299259316   21.70433162119630
C         4.77989019541058    3.72838762625139   21.98757472329875
C         5.27398282617521    4.71103728781073   21.02689986288507
C         5.17732881797008    4.30699438801209   19.54098170464363
C         4.18891361637167    3.13308416316079   19.29108414561812
C         3.57157976647395    3.11300036975054   17.88688357999228
C         5.00119746219732    1.82732448748316   19.40599275105564
C         2.10078234461126    4.31985231368482   20.32529256054699
C         0.66494239047465    3.85023526816863   20.37766333246193
C        -0.24708832148239    4.32682730750053   19.44453893151750
C        -1.57491229289446    3.93914213043198   19.49187714985964
C        -2.00943520623814    3.07218587433102   20.47884480687812
C        -1.10831141788569    2.59274484061559   21.41445028528404
C         0.21888900553655    2.97644548258587   21.36300586525010
C         4.93505352507847    5.60453104665240   18.71758185374167
C         6.25994438946778    6.30141640606072   18.43691159878426
C         7.25016024576773    5.63786184174728   17.71729922586256
C         8.45795757569895    6.25113300856096   17.44125978710774
C         8.69483614303488    7.54697711808460   17.86902289373881
C         7.70525421343408    8.22768675953353   18.55489669549575
C         6.49598483450952    7.61150853050103   18.83134580410766
C         1.49661201611326    5.42006551726666   22.41851352869772
C         0.28224855543625    6.09834942837938   22.25821591880310
C        -0.60162924440683    6.22536905722413   23.31259105443136
C        -0.30349419549085    5.67405747721536   24.54726777182793
C         0.88856240143506    4.99015513221742   24.71854441742742
C         1.77884748524426    4.85970322283313   23.66888290049409
C         3.23376955963013    7.33030834937445   18.72144222999554
C         2.12776773102501    7.92969665681535   19.36065001824899
C         1.32287920076746    8.83403038303904   18.70240455247652
C         1.57909204258795    9.18001790182946   17.38296898619873
C         2.65908440074156    8.60291444416153   16.73753367740555
C         3.47619132794053    7.69589406171662   17.38379481194295
H         3.45055126515687    6.70555761142297   24.40884122106972
H         2.41299764127407    8.54988940733808   22.78868672882302
H         4.32433295005526    9.32636137611860   21.08225891678136
H         6.54836627659211    7.91688403086287   21.64836495688692
H         5.99199018980621    6.29429416789730   23.69087352848347
H         2.46646843038388    2.19284282893401   20.16277204932946
H         3.36039076249491    2.20220128392622   22.40648780247234
H         5.28769380270953    3.65118167512186   22.94809134867512
H         6.30613440967536    5.02433621261738   21.24814080762354
H         6.16010447813153    3.92894168545356   19.23053707536337
H         2.99493258763270    2.19754776150691   17.76700836017523
H         4.35236662226900    3.11767020330357   17.12858973349609
H         2.90123909744114    3.94705968715077   17.69894048009865
H         5.70938492592018    1.75066265070378   18.58308727817611
H         4.34168247635203    0.96295154807880   19.36530768306213
H         5.55286656612968    1.79065208169183   20.34069462736022
H         2.24900307427907    4.81777297952651   19.35692934512726
H         0.08617439699314    5.01359510192801   18.67755166453117
H        -2.27160408637051    4.31733961397359   18.75788560971761
H        -3.04589996254009    2.77126098808184   20.51959615570437
H        -1.44136005330464    1.91713420227124   22.18870023933724
H         0.91386053115364    2.60223051657648   22.09925547580757
H         4.52393357592201    5.33412480377978   17.73284869663116
H         7.07101945422422    4.63464990262080   17.35594050866512
H         9.21506701393307    5.71878058030356   16.88395212551202
H         9.63847651032997    8.02630935653397   17.65466551133758
H         7.87037697153789    9.24756945344722   18.87179775694852
H         5.71607094982567    8.16688528942439   19.33420632578062
H         0.03544496121809    6.51902889532045   21.29193146122256
H        -1.53210170472880    6.75533253189915   23.16813757099180
H        -0.99740080212226    5.77152067383329   25.36867884077808
H         1.12297127069446    4.54840791845666   25.67703537194639
H         2.70351268258960    4.31034225157174   23.79758783928030
H         1.91001058724083    7.64659544896302   20.38965231862345
H         0.48132349279691    9.27412611098374   19.21982347192076
H         0.94771045742145    9.88896764395367   16.86985639155664
H         2.87590003181286    8.86651289926269   15.71190270378721
H         4.32386696021504    7.28995491202318   16.85188724867709

