54
CSD_code = EXOQIR | q = 1 | S = 0 | Stoichiometry = C12H36FeNP4(1+) | MND = 6
Fe       -0.54594260694711    9.55686047815387    5.41803953405755
P         0.70265098728639   10.43708498372098    6.97008990154886
P        -2.20196102831118    9.75778319369881    6.80803520531899
P         1.15574931788382    9.12812417905894    4.13901533843849
P        -1.74640307286807    8.42212845496529    3.99978044040998
N        -0.91335054410111   11.38037908604098    4.48206149202020
C         1.92695109100087   11.78276505798436    6.72418913869783
C         1.65966614637181    9.29807039409158    8.02373190595975
C        -0.39347023430498   11.21940669367577    8.23452507278100
C        -1.55426120002449   10.26609059786804    8.46011832138790
C        -3.49677989142803   11.04421296347588    6.55261934443785
C        -3.23544280475663    8.33982145593004    7.30307029081382
C         1.89184054246214   10.45172364342370    3.09146679800702
C         2.66628416458745    8.31069291384799    4.75012163733250
C         0.64768175410573    7.92066471384348    2.83819900830814
C        -0.78192711501428    8.23820446994890    2.43446651382578
C        -3.37341134466866    8.94484192923154    3.33030939490878
C        -2.08511194511444    6.67240958702246    4.38241619084069
H         2.31904190830636   12.09208785494490    7.69262851754747
H         2.74886362372426   11.42420165056057    6.10557953563251
H         1.46129419332170   12.64073360889572    6.24000378738489
H         1.01508471331396    8.46820492145235    8.30676446956502
H         2.50287562725629    8.90044337786806    7.46529774012240
H         2.02033227023531    9.82044720788698    8.91080659653655
H         0.16290531433596   11.42191723876932    9.15398268565977
H        -0.75125311429322   12.17400533181937    7.83234181019638
H        -2.35043544255624   10.70994775731104    9.06508872370684
H        -1.20116853139140    9.35681890829090    8.95498131204731
H        -4.28172237130411   10.91439753932710    7.29647313502803
H        -3.06788643718068   12.03980539543919    6.66849530354576
H        -3.92979306626436   10.95331495203241    5.55744589351384
H        -3.77020573649983    8.58378443938879    8.22232451447599
H        -3.95356641801566    8.10429265653540    6.51920470800302
H        -2.58368121193985    7.48388321857098    7.47001330768632
H         2.25822773960540   11.26622218508426    3.71483381055818
H         2.72480547998246   10.03863317518947    2.52407164685463
H         1.14733300077512   10.84044651687150    2.39749024245106
H         2.37254327824152    7.49727710911686    5.41145688122196
H         3.23315715695244    7.91605540114959    3.90554828475435
H         3.28297563933055    9.02133282793000    5.29831254669206
H         1.33923359006210    7.95310728872250    1.99126163183349
H         0.69535815876409    6.92728393586844    3.29362268682079
H        -1.21859200191636    7.45877010029302    1.80373362923276
H        -0.82434887767221    9.18609834559754    1.88586832130882
H        -4.11835564930037    8.91974415145449    4.12467597461436
H        -3.31964771133156    9.95602070156390    2.92807001568950
H        -3.67351079067489    8.26038856699025    2.53728533276489
H        -2.83464632989154    6.60513527691291    5.16643946962241
H        -2.44068512286970    6.15552976238359    3.49003865417887
H        -1.16700764665540    6.21535067271160    4.74636193215955
H        -0.27939759308691    8.28259156708935    6.06320005583327
H        -1.59888743088354   11.94534128965502    4.97817336212052
H        -0.06590645183483   11.93925357745247    4.40861306533462
H        -1.26699597476631   11.26166669265634    3.53515488610468

