78
CSD_code = EXOTEQ | q = 0 | S = 0 | Stoichiometry = C23H48N5SiY | MND = 6
Y         3.49947888486374    0.68506078430700    7.98208284814163
Si        1.27334444785964   -1.02429770928210    5.69444599150993
N         3.85126089230066    0.08715283832549   10.10689682631219
N         4.89643383673923    2.66022685799125    9.26566270885554
N         4.74745649695595    2.55408083503769    6.35419920617252
N         1.94612898308454    3.05633542129994    9.22159489178108
N         5.27769122206453   -0.18360171084889    6.83184965455488
C         1.87377557958666   -1.33047544327465   10.33389476027149
C         4.12005441055971   -2.37365737241353   10.50083795062421
C         3.27277931315127   -0.89865186044450   12.33606655296260
C         3.31935336009294   -1.08266143725226   10.80065965997430
C         5.07302992004495    0.58785664838023   10.70568710000849
C         5.78999042972730    1.65315300347160    9.85718485600494
C         5.66235484466866    3.58441483076804    8.42805554508055
C         5.95403978523189    3.03201433559546    7.03029997124169
C         4.16817649421963    3.40416907020839   10.29387505432495
C         2.88846842224281    4.04061877485460    9.74785967779182
C         1.27659860022323    2.36430599143260   10.31907179777790
C         0.94105824490706    3.72948437821294    8.40711437305573
C         3.96173213698145    3.67699762825578    5.85660351832056
C         5.09166458713662    1.69031858515288    5.21632271972432
C         5.83069174563131    0.40158187925938    5.60466186933196
C         5.81376860994240   -0.56689473833921    4.44876260243210
C         6.07048903781618   -1.85750482328366    4.70217906353149
C         6.16174676432397   -2.29272172998025    6.05907637221549
C         5.65416958251838   -1.46721610413264    7.02018355832119
C         1.42592615658527    0.47124283774089    6.83698164363278
C         2.24323055717698   -0.76083737087429    4.06789409178129
C        -0.53918360038165   -1.43010996548900    5.19968141403007
C         1.98418281526748   -2.59472452762664    6.53106585207207
H         1.50654678045038   -2.26690008064567   10.74979275522420
H         1.22101963696898   -0.52769765087140   10.66840848125823
H         1.83308642543253   -1.39242338070114    9.24388705202407
H         3.74881049305758   -3.19792693653590   11.10584773379362
H         4.01360706570140   -2.63820140386597    9.44998413681909
H         5.17643743569767   -2.24039845959843   10.72348881552002
H         2.68275497186116   -1.69622912228581   12.78109462040947
H         4.26791351117122   -0.93257224801068   12.77089406979622
H         2.80865260480150    0.05230480621916   12.59101324097338
H         4.87568704695798    1.02252461605027   11.70700339475253
H         5.82261848953986   -0.21058086739715   10.87490489421872
H         6.30139896042490    1.14644981019154    9.03386833314261
H         6.55138491688883    2.14339284860070   10.49099216553950
H         5.09856154579879    4.51349151894687    8.33068285800950
H         6.62391861345789    3.83913228544653    8.90590948984780
H         6.64397904146506    2.19443655981458    7.12198540875896
H         6.45329851791043    3.81910695142994    6.43903840258778
H         3.89681082183122    2.71156792886984   11.08593587776092
H         4.79839133393723    4.19452775023263   10.73485844707289
H         3.13727154463300    4.73429032734511    8.94078596516882
H         2.42641625651410    4.63597268610398   10.55643590721146
H         1.99541588251152    1.74931584165698   10.85513867413367
H         0.80352154306260    3.07425938162891   11.01650686631146
H         0.50479571071549    1.71360876511042    9.91211559272395
H         1.41573349668180    4.23267724203040    7.56626143170145
H         0.37474250825560    4.47492810513769    8.98689109069658
H         0.24304790593847    2.99306708546238    8.01499322202518
H         3.05457006627774    3.30497901776899    5.38139730866570
H         3.67779411036708    4.33127157724769    6.67745236753411
H         4.52456818831315    4.26933473325073    5.11789819644188
H         4.15117107462848    1.40998170020356    4.73231655355251
H         5.70774222637032    2.24188663431244    4.48558857894324
H         6.90009867416427    0.65809141199313    5.81383564096484
H         5.63177691694809   -0.18052276587970    3.45736823997230
H         6.12352153676231   -2.58837294716788    3.90732620976402
H         6.45671084043401   -3.30235376794032    6.29382157605089
H         5.50416152642473   -1.84419234905347    8.03033109594583
H         1.22978518717781    1.37122356506704    6.23939630730695
H         0.60130632677241    0.41880881028148    7.56021273946830
H         1.98767787515882   -1.51808472242965    3.33301095744871
H         2.03251775119497    0.20684354645393    3.62138100755282
H         3.31264884506981   -0.82824541125141    4.24538929229488
H        -0.98753075323541   -0.61196548460461    4.64430590687475
H        -0.59906067917419   -2.31826787835201    4.57849226709520
H        -1.15498379593463   -1.60355430755549    6.07697773994586
H         3.00037824568197   -2.41811638078092    6.88243925113579
H         2.02301765088153   -3.42431341810665    5.83142252819951
H         1.38101256252450   -2.91421583087976    7.37626517551854

