84
CSD_code = EXOTAM | q = 0 | S = 0 | Stoichiometry = C22H55N4Si2Y | MND = 6
Y        -0.69911270990143    0.74124962961160    4.16528498765145
Si        0.97566077254648    0.04639385587979    7.66210117490052
Si        1.07482922216548    3.67564368273551    2.74617849745219
N        -0.64908754772380   -1.44424567882834    3.59363930125539
N        -3.22199729213492   -0.53974936626295    4.58387343667402
N        -3.20125285739022    0.68711423472857    1.85643911911276
N        -2.66770688860194    2.19955476912007    5.69165681579763
C         1.16715579636332   -1.09935256047165    2.00340503169541
C         0.13091749475851   -3.34952800025472    2.17344206940825
C         1.58659875121598   -2.48854807987456    4.02101914158396
C         0.51000933498240   -2.08873495075698    2.98406305137829
C        -1.48157108004169   -2.35739996858605    4.34630822710408
C        -2.51460137401922   -1.64799847477277    5.24147848177472
C        -4.01164217172587   -1.04335921541065    3.45781019070951
C        -4.36750538253330    0.03073164182095    2.43019279288812
C        -2.45388785293481   -0.23620968469766    1.01094928110471
C        -3.62957098170991    1.82955848347753    1.06317581892205
C        -4.10345415344026    0.13690956090849    5.53660055868846
C        -3.41103349363049    1.17325214336111    6.42561574371431
C        -3.55816395647381    3.00571691935516    4.86165965747984
C        -2.01446218367251    3.08337784338031    6.65599898576369
C         0.87978765092898    0.97178787891054    6.02704454089644
C         0.86855282362957   -1.85981650602834    7.51220394398353
C         2.61823169919484    0.37652831567017    8.60707366475014
C        -0.38506151662294    0.52812533999693    8.93411363563083
C        -0.39391065014450    2.52076717255397    2.55454185324382
C         2.70690914930526    2.67525809890553    2.82606413983099
C         1.30112451299975    4.94636862356966    1.32036933562252
C         0.91999863750047    4.72392595286503    4.34444246994109
H         0.46307961138449   -0.81172979961926    1.22502824739121
H         1.50192379991569   -0.20207752279994    2.53208286164520
H         2.03122345153812   -1.56389403275602    1.53093482896268
H        -0.66952919557255   -3.12228324408162    1.47212193987631
H        -0.19295364629371   -4.15604421334035    2.82569170575211
H         0.99303773842500   -3.69875121986084    1.61026837874162
H         1.84468386399282   -1.62421258064511    4.63118496549255
H         1.22629535545170   -3.27859449359103    4.67455271194667
H         2.47995292436065   -2.85089365161348    3.51698867410106
H        -2.02561682058014   -3.05008419913854    3.67197031746813
H        -0.89829923918524   -3.01170266833825    5.02277742767614
H        -3.23885196543704   -2.40395300583678    5.59781585182144
H        -1.99382105284394   -1.23747416738832    6.11276701583377
H        -3.42936474154355   -1.81014861405245    2.95509894236656
H        -4.94601397323756   -1.51071194841621    3.81320606724141
H        -4.99629390632865    0.79824776752320    2.89063190803425
H        -4.97856539753168   -0.45274969712604    1.64284805121303
H        -1.95401727523105   -0.97448857479949    1.63624768729199
H        -1.69446252456811    0.32038014554396    0.46494859186232
H        -3.10666451350844   -0.73991823799440    0.27901086269660
H        -4.28263196512074    1.53328286825996    0.22673749597140
H        -2.75490537865924    2.33394789799072    0.65924420758387
H        -4.17406789933128    2.53747413811299    1.68729207024413
H        -4.89622981660236    0.63571814660894    4.97753010058225
H        -4.59260204506372   -0.59793112278331    6.20052515647935
H        -2.70286740882897    0.67135020447261    7.08937630661272
H        -4.19205733479377    1.63858984219073    7.05549395929137
H        -2.99030920653010    3.82755986327868    4.42875448991694
H        -3.95377198584069    2.40438229886246    4.04929950056857
H        -4.39015640160243    3.42534870429361    5.44824465983794
H        -1.34099495407739    2.50851126559652    7.28695273010774
H        -1.43602223726305    3.83403355542356    6.12031352290408
H        -2.75094324239321    3.59404624450403    7.29478510574236
H         0.91027193872107    2.04307173354745    6.27311408971901
H         1.84740702496715    0.77761321625100    5.53582270538180
H         0.67130235304408   -2.31645824859640    8.47773796313566
H         1.80018595474214   -2.27350190674000    7.14190871934469
H         0.08087864120855   -2.17014589895320    6.83486939835792
H         2.68000107040635   -0.18240991609649    9.53642838631845
H         2.72508357491618    1.42950039685806    8.85116219337204
H         3.47575397222545    0.09748781491927    8.00174445605761
H        -0.17608451944999    0.06151093871141    9.89209895816509
H        -1.37657412163924    0.20178284375090    8.63349955050630
H        -0.42019008312956    1.59978244288838    9.10487737760199
H        -0.31508504597771    2.05345416539227    1.56401150895439
H        -1.30680144511117    3.12700462152989    2.52587193696087
H         2.86507317256437    2.11436508510262    1.90964093665513
H         3.56648246796821    3.32448105993079    2.96186870886997
H         2.69611738467917    1.96762997049145    3.65090428770753
H         2.16761784179154    5.58280745121832    1.47301820548726
H         1.43093380271787    4.44288966291482    0.36720881869118
H         0.43354225547536    5.59315150587134    1.22992502623180
H         1.74254327494366    5.42614631499248    4.43603393725917
H         0.92541252539090    4.09657018964797    5.23011670658811
H         0.00019158951397    5.30151494700121    4.34826383640956

