76
CSD_code = EXUDIL | q = 0 | S = 0 | Stoichiometry = C39H32BrClNPPt | MND = 4
Pt        4.69526078384833    4.64834441602936   -0.31729029431466
Br        2.92955971496190    3.58352178009899    1.06017832808364
P         6.25432929124976    4.07615393272075    1.22028040041101
Cl        9.87294282664910    5.25996215574984   -2.85828381842799
N         3.42171312447519    5.19518984982112   -1.79518717827450
C        -0.51355456050899    6.95612166457213   -2.93779007908294
H        -0.77404778681182    6.48454833463867   -2.00097934757012
C        -1.29126270582866    6.74037845023479   -4.06099958699020
H        -2.15102509775677    6.08897123256287   -3.99440318963241
C        -0.98341105152416    7.34967961884845   -5.26997104742961
C         0.12381298783165    8.18971896838818   -5.32501819395673
H         0.37734370468442    8.67216060374554   -6.25865189493189
C         0.89955702256560    8.41523059956855   -4.20495871880243
H         1.76043222593605    9.06660492447942   -4.26302075909845
C         0.59425765936304    7.79540800637696   -2.99666934718750
C         1.42345634213861    8.05141186437315   -1.80349854166175
C         1.56633617420838    9.36298472778663   -1.35702870519414
H         1.06054478301516   10.15264609642499   -1.89412278006149
C         2.32873171583467    9.65868833217461   -0.24373082087536
H         2.42606548147347   10.68210472278252    0.08728581105363
C         2.96560238951604    8.63860538796238    0.44333940898295
H         3.56277443152598    8.85828536044195    1.31577879312054
C         2.83677187224585    7.33456070833015    0.00549092725161
H         3.34082300794829    6.53767723200125    0.55276380191868
C         2.07025343458564    7.02547026940805   -1.11298502793540
C         2.04819276442387    5.59399700228532   -1.60801385130242
H         1.49467459646101    5.52022986333392   -2.55058349079456
H         1.58087866256542    4.94735578692083   -0.85781751761149
C         3.97425125274466    5.31678565674409   -2.94738251774289
H         3.38757127456849    5.57993350994410   -3.82803517846734
C         5.40514394409589    5.21024302584534   -3.01408595377886
C         6.13439713250425    5.29706082065356   -4.19941667189959
H         5.61803587758996    5.35534345773750   -5.14699689346207
C         7.51304462619937    5.29639493700378   -4.16028554860964
H         8.09656048165600    5.34882056759767   -5.06570673835973
C         8.14408645934224    5.23844597581664   -2.92472771842151
C         7.43085315190701    5.15340542145866   -1.73960712570526
H         7.98157197666907    5.12839165990328   -0.80936919940066
C         6.04430753395843    5.11538716867986   -1.75351989529156
C        -1.81602780664001    7.11870623478720   -6.49404712683206
H        -2.66133528439832    6.47165672194148   -6.27436533409401
H        -1.21805294887661    6.65488371494543   -7.27821739714228
H        -2.19249486879205    8.06498010006821   -6.88063682172294
C         5.79782858705088    3.21464257134112    2.75732887797184
C         5.14837472654580    3.95910624620239    3.73953972897537
H         4.95680973343384    5.01110986563155    3.56804607960764
C         4.73970540507709    3.35300264301611    4.91025666532349
H         4.23149002563462    3.93113963417328    5.66740838894468
C         4.97159564323846    2.00002439091104    5.10603082381066
H         4.64717571130637    1.52446959797069    6.01963158749676
C         5.60800559070713    1.25600794606981    4.12774016352674
H         5.77998132628114    0.19994880106546    4.27630097621756
C         6.01909022214048    1.85737646183375    2.95058800758711
H         6.50612486613455    1.27239379951708    2.18260137537011
C         7.42729492419874    2.92401428144395    0.44285441223698
C         8.79294443865949    2.88394835702155    0.68840864184689
H         9.23887861504917    3.56543307994781    1.39862649773382
C         9.58653758860136    1.98335538766642   -0.00080215563664
H        10.65084122751353    1.95950190469642    0.18187157149921
C         9.02427621835238    1.12220435132259   -0.92845877528881
H         9.65126621441406    0.42665446493428   -1.46625084590922
C         7.66101553416864    1.15944378591682   -1.17622928868038
H         7.22323459930657    0.49317256148555   -1.90475832102707
C         6.86670044085804    2.06173540864657   -0.49635113219459
H         5.79812954545334    2.11710133751200   -0.69172276611125
C         7.22313704123590    5.46312102302708    1.88725126500732
C         7.03799377457451    6.72358698941185    1.32983914806563
H         6.33103216300301    6.83858824164795    0.51353888741689
C         7.74488851150369    7.80852671386078    1.81565321961292
H         7.59955760796545    8.78599195333477    1.38017914040486
C         8.63674278896617    7.63889323256288    2.86211026917639
H         9.19251652732771    8.48388739882220    3.24073434996824
C         8.80861034217553    6.38789465194292    3.43430584778537
H         9.49380580916167    6.26102294979589    4.25972793843767
C         8.09946055040835    5.30115558404697    2.95634729675041
H         8.21062710219787    4.33029351803766    3.42063896505214

