33
CSD_code = EXUFIO | q = 0 | S = 0 | Stoichiometry = C14H11CuN2O5 | MND = 4
Cu        1.79212843150764   -2.64256350648659    5.15483544665307
O         2.47019221092517   -1.13352390544291    4.54481949745842
O         1.34022768036969   -4.13328501865989    5.99107101324058
N         1.12076584377391   -1.59606672902532    6.57930134719514
O        -0.47859019803125   -3.00026899727078    7.42345147724355
N         1.43869734128305    0.56368571433450    7.45739760903238
O         3.03994489427111    0.93287530374265    5.07831487939976
O         2.28325841030932   -3.44776009045927    3.55564621224098
C         1.44485518261182   -5.58074996241486    4.12681815300579
H         1.25745398364210   -6.57970245165836    3.77194356041849
C         1.65204678008036   -0.33972853819016    6.57556777887976
C         0.15141595536305   -1.96630375001724    7.49570687631391
C         1.14532131405283   -5.26130537704823    5.44867541550455
C        -0.05591940013896   -0.97115041548562    8.56194289747311
C        -0.92195318549017   -1.24744307225744    9.61915075542819
H        -1.42681632439515   -2.20130710482867    9.63680895061521
C         2.47438090351138   -0.09473797488792    5.33712225237052
C         0.61380761444514    0.26341378122066    8.50210411071180
C         2.04534079126080   -4.66132152703032    3.27133242136006
C         2.46850536367553   -5.10895395340346    1.90070878775319
H         2.93497673369123   -4.28014716368566    1.37649813155222
H         3.16968535893142   -5.93662133600960    1.97950494044956
H         1.59781409184133   -5.45044285657708    1.34510288022252
C        -1.11146953495526   -0.31009514210430   10.61080723738884
H        -1.77916345918951   -0.52191303274972   11.43229364016484
C         0.58188941806077   -6.31113702172312    6.36125027213961
H        -0.06181908498037   -5.82046035873654    7.08761752765009
H         0.03329699937192   -7.06170270138753    5.80164219549438
H         1.39656533309830   -6.79317669356639    6.89992339132127
C         0.40637372654432    1.20540675813032    9.51673898199785
H         0.92871645582331    2.14627896950381    9.45346568852737
C        -0.44586311658736    0.91413417244428   10.55689261464643
H        -0.60506651467770    1.64107398173165   11.33964305614545

