31
CSD_code = EXUFAF | q = 0 | S = 0 | Stoichiometry = C15H11CrNO3 | MND = 9
Cr        2.51473389976104    2.42765210594901    5.51351384345138
O         0.02404298511672    3.43180936190270    6.79377422270692
O         0.78609911775164    0.00681099936919    5.44410203680010
O         2.87402687367370    1.40671578018064    8.28586944066420
N         2.88689699664646    6.52073109694422    2.67892141605482
H         3.69232908551630    5.91558511134515    2.71964971188722
H         3.00651040441323    7.31619659179327    2.07178445881314
C         2.55058147984566    3.85903514857513    3.74668080731286
C         2.88838704200160    2.57662372152955    3.29176664595691
H         2.36805550875517    2.16209621808630    2.43537569828321
C         3.97427213476422    1.87710566575590    3.85573993905660
H         4.27556783317643    0.92524303850192    3.43428583544470
C         4.70825229030239    2.44910291653546    4.89363898256062
H         5.58294129069092    1.94410467266878    5.28588192038992
C         4.37040332795638    3.73378713948716    5.36917095809282
H         4.98508698975820    4.20352589758187    6.12788894836956
C         3.30220214957748    4.42818477009917    4.80565819352947
H         3.07416641637047    5.43793271765197    5.12632449977414
C         1.44978569583447    4.60922134216655    3.11355713206674
C         1.65169278231900    5.89892470063381    2.59528412817934
C         0.57075559604384    6.57322692639650    2.02867502649027
H         0.72615427297410    7.56791169643828    1.63501963845416
C        -0.67755401416868    5.98847880911222    1.96840988060618
H        -1.50031925420785    6.53177761894628    1.52855923968990
C        -0.87261725467459    4.70884855417331    2.46410783367117
H        -1.84659941590395    4.24811237301459    2.41779453576010
C         0.18817524692945    4.02855256181318    3.02959469065937
H         0.04304330348897    3.04065463464391    3.44608142567823
C         0.99748238255940    3.08340054757823    6.27909875970526
C         1.47813653022291    0.93274525006557    5.43148564265801
C         2.78170830250489    1.81450203106070    7.20880450723276

