24
CSD_code = EXUGOV | q = 0 | S = 0 | Stoichiometry = C8H7HgN5OS2 | MND = 4
Hg        7.27619216239663    4.08302197125448    4.48369555685016
S         8.78982055677363    6.01784450711691    4.19044714099345
S         5.55033277853297    3.01284292033871    5.83987626497139
O         5.13543475631206    3.82445908834623    1.64910366606929
N         8.71287190740146    2.42231785885591    3.21918665344795
N         6.41334519396493    3.56289018679803    2.18333247851154
N         6.70132158359225    2.31835745517213    0.25390004608692
N         9.71160659025406    5.09422605346537    1.70305647705124
N         6.03954453964803    4.37002167290149    8.26038117032914
C         9.92287415164180    2.09595269484174    3.65653187763976
H        10.05143341239469    2.08709242919909    4.73175724469872
C        10.97226213983516    1.77290994652475    2.81234425517304
C        10.75306775071394    1.80911660030377    1.44536721835513
H        11.55132969379137    1.59533514706570    0.75134155261283
C         9.49053090766542    2.13434492231517    0.98148641535916
C         8.48887755456940    2.43446163725323    1.90063743330275
C         7.12869529681998    2.78580900046339    1.44051750269420
C         9.31504950523182    5.46241205393243    2.71921531288824
C         5.86401477661228    3.83745670345160    7.25859947146174
H         4.71052856946857    4.43027813328341    2.27043409474076
H         5.75781078083226    2.54502593300253   -0.01600721327789
H         7.19144632201667    1.59317256467571   -0.23496610548208
H        11.93742452977935    1.51822447639773    3.21927174136183
H         9.30088453974791    2.20622604307379   -0.07721025582787

