103
CSD_code = EXUHUB | q = 0 | S = 0 | Stoichiometry = C44H28F12N2NiO4S12 | MND = 6
C         7.55770743988907    5.80063591508551    2.52733218833587
H         8.61266209886956    5.84355796222545    2.77222019541602
C         6.59192863626336    6.06196512049969    3.47681009550566
H         6.88703035239207    6.31718770621226    4.48154403738604
C         5.96698744636468    5.35677285022408    0.92839566764896
H         5.76444300086629    5.05976615865367   -0.09399016449290
C         4.94176679745364    5.59367046316774    1.82124550225740
H         3.91881662933044    5.51206948771537    1.49153726894161
C         5.24138019699367    5.98378207241130    3.12837044946949
C         4.18829718498228    6.29463605158506    4.09569275886045
C         4.36084968561647    7.34669663566835    4.99455679727911
H         5.25058254520526    7.95553153406238    4.96359274670271
C         3.36507625235703    7.64385826430231    5.90672886726176
C         3.00830417149018    5.54894378378979    4.13260518403591
H         2.87629727970433    4.71983380756476    3.45554340341124
C         2.02134510893139    5.83364757749255    5.05448942564201
H         1.11541952600419    5.25021747777485    5.09308359351635
C         2.19326336841112    6.88437075338945    5.94470411428168
C         1.92342808941537    8.67087170400639    7.80849151916805
C         1.46172565609383    9.42182128566205    8.82377632696776
C         0.07800443468870   10.40200640848834   10.78905946744849
C         1.19780220737105   11.14664439337021   10.74528170779882
C         3.27173686925750   12.49931214776764   11.93591518097870
H         3.60482844794930   11.53998303934586   12.31877676906043
H         3.52708900083826   13.29169651610928   12.63165572357940
H         3.70666909182147   12.70088922059736   10.96140395876648
C        -1.79688661270639    9.03635183097862   12.25330847426942
H        -2.18319828962491    8.59020796616026   11.34168146723568
H        -2.58781263880455    9.13101357612777   12.98976169890625
H        -0.97613266682789    8.45071045940359   12.65489364797640
C         8.89142080389497    9.26717153399123    2.12683122154421
C         8.58370315923571    8.37627630271702    0.89822777875218
C         7.47541727721488    8.78166745472583    0.14995113896651
H         6.97052229965615    9.70107215085778    0.39039483791189
C         6.94129447015307    7.92267526523076   -0.81286609875772
C         5.56549705026743    8.35696239772645   -1.37431702914835
F         7.95819177099945    9.07645309277779    3.08744078332811
F         8.88116593223868   10.57507307401130    1.84446734279004
F        10.07016325621421    8.98654490799940    2.68072400423506
F         4.59874430376015    8.15474620798469   -0.45181364543389
F         5.51622233189212    9.65492710106314   -1.69710971990009
F         5.21307428898688    7.66296568936169   -2.45584360580196
N         7.24807958524203    5.48607134124376    1.27001214371602
Ni        8.54460375539349    5.46244857735166   -0.00028156261001
O         9.28726003810148    7.36430154051187    0.75127071838428
O         7.38347601488782    6.83104008105557   -1.20695427937542
S         3.49423199556752    8.96078391273726    7.05627504296639
S         0.99760588692914    7.32494707650032    7.13970854732737
S         2.37512470764943   10.77138502652242    9.48506041830241
S        -0.09977381435422    9.12953683549152    9.57722295558519
S         1.45591833742268   12.51123771701608   11.80983118525456
S        -1.22536959649253   10.73101899357661   11.90942477275110
C         9.53167938644623    5.12449511970383   -2.52794756080490
H         8.47674836521141    5.08164780264742   -2.77295163865879
C        10.49755358280827    4.86328839382593   -3.47736829850572
H        10.20253507088201    4.60830118950068   -4.48218667993378
C        11.12224093664727    5.56800382562365   -0.92876294772528
H        11.32470009094262    5.86484866642147    0.09368646699750
C        12.14754473697360    5.33113304269166   -1.82151588887343
H        13.17045301200848    5.41254513497091   -1.49163563689083
C        11.84807178228126    4.94128915561524   -3.12875783882200
C        12.90131227294396    4.63051101465724   -4.09593117120091
C        12.72874359619838    3.57885631935285   -4.99527167214068
H        11.83879457950640    2.97030929324264   -4.96489072567468
C        13.72476812606089    3.28169131212439   -5.90717095200890
C        14.08157198218831    5.37582627185698   -4.13214630344065
H        14.21360808745347    6.20465825648281   -3.45475203888911
C        15.06880527586911    5.09110078549332   -5.05372473156064
H        15.97496333010545    5.67420816815545   -5.09172486151968
C        14.89688498414422    4.04074685147993   -5.94437462164606
C        15.16704971377516    2.25455337074520   -7.80840437599234
C        15.62920383222508    1.50341233114323   -8.82334131461925
C        17.01437428341094    0.52202955074230  -10.78703364178450
C        15.89421320463772   -0.22210410011332  -10.74408299740961
C        13.82089178425975   -1.57444676941882  -11.93620404541352
H        13.48855531359649   -0.61511093796177  -12.31970066279975
H        13.56589625269293   -2.36696458662185  -12.63192996768603
H        13.38495101545864   -1.77552173108863  -10.96204164368013
C        18.88970386078443    1.88619432805610  -12.25201185901868
H        19.27410389898301    2.33446676731303  -11.34062275349380
H        19.68196716213581    1.79064478153600  -12.98690623626639
H        18.06919696479114    2.47039339019830  -12.65620274402674
C         8.19788496536603    1.65772187635463   -2.12738788563332
C         8.50559522968688    2.54864965779251   -0.89880799944794
C         9.61388263726553    2.14327692167204   -0.15052093226490
H        10.11881745667662    1.22390070649461   -0.39098683245525
C        10.14794745039111    3.00226609491330    0.81232938070564
C        11.52381220169778    2.56812810689899    1.37372927447967
F         9.13115212957538    1.84835667272295   -3.08797249213051
F         8.20807371541700    0.34983154164702   -1.84495951369180
F         7.01917087458974    1.93837046869453   -2.68132957349246
F        12.49057149348631    2.77090355912870    0.45134914962386
F        11.57341416024587    1.27007401426882    1.69609760774848
F        11.87599031912409    3.26186465502651    2.45550378177769
N         9.84117542582304    5.43885119081704   -1.27054350898215
O         7.80201577227463    3.56061013805194   -0.75186026927141
O         9.70567481503374    4.09385206633839    1.20645762154308
S        13.59558203940643    1.96528806252737   -7.05731906532421
S        16.09290430925899    3.60014580005362   -7.13900253485802
S        14.71572210064080    0.15422116327067   -9.48528970377239
S        17.19138374795441    1.79504638877080   -9.57563053030290
S        15.63658229182622   -1.58700165782669  -11.80835787624506
S        18.31887521325354    0.19177712124174  -11.90571377771625

