77
CSD_code = EXUMAL | q = 0 | S = 0 | Stoichiometry = C29H45IrN2 | MND = 6
Ir        7.36056051240149    1.33647278584407    3.48286697470015
H         7.80358917971786    0.22027157021741    2.49999128599580
H         8.47877587100832    0.57855005100656    4.20932433036674
H         6.63403598151250    0.30425678084773    4.38549886290132
H         6.09219218897152    0.95083351459521    2.71289968413755
N         6.79315180346762    2.83325774763325    4.74555399870040
N         8.29611430445139    2.72545782498361    2.31994162482607
C         6.53118116758125    5.08212374651797    5.68487129994838
H         6.81018564821401    4.75892044148644    6.68604033670032
H         5.44288326183324    5.11004160788745    5.64769896135298
H         6.91202420316299    6.08633076807128    5.51734134159049
C         7.05914928908142    4.12491631976777    4.64774307212831
C         7.81097097844299    4.67923249915133    3.61343409146741
H         7.95807858190891    5.74841095474994    3.65668933442432
C         8.38897587938035    4.02842568028480    2.52478273682206
C         9.13580121971588    4.89468443637205    1.54347387936977
H         8.59278635197413    4.94176994238127    0.60015280868616
H         9.25280152040837    5.90476721162697    1.92781811481241
H        10.11848286892088    4.47921488964278    1.32880408498728
C         6.01181223815340    2.45570907285079    5.87897616866206
C         4.61356061232651    2.43735146890133    5.78784684250173
C         3.87756670766767    2.05834268173527    6.90124804356222
H         2.80039166655762    2.03033816282475    6.84109791259541
C         4.49752726648199    1.71796867153760    8.08632054266298
H         3.90856243299245    1.42895757522440    8.94408628706876
C         5.87514690438577    1.74564070491918    8.16759966411277
H         6.35585615985776    1.47454614383812    9.09510222682451
C         6.65149263567943    2.11739982730784    7.07982264835735
C         3.88536384342661    2.78114306832117    4.50660511996600
H         4.61204669313758    3.11136053303986    3.75726261544478
C         3.17739206666695    1.53868547644626    3.95950055160879
H         3.88986737165717    0.72895025403407    3.82042852442967
H         2.71273997513610    1.76287438346292    3.00140442542060
H         2.40487088229176    1.20273066176451    4.64651861648650
C         2.87459449398906    3.91327812222391    4.70871885854633
H         2.42242982351598    4.18020871324794    3.75543184619175
H         3.34935847356125    4.80261245329866    5.12021391964901
H         2.08082113103049    3.61143299765950    5.38717058972088
C         8.15875011946571    2.11797490026081    7.21615403887255
H         8.60457841377051    2.47611670115070    6.28271680057316
C         8.62902524712116    3.04299566502824    8.34200170939148
H         8.25874671409481    2.70430869424782    9.30629213859216
H         9.71654386983668    3.05468691358260    8.38093927455892
H         8.28483823221028    4.06425666525719    8.18691523449574
C         8.66286215534092    0.69314076162971    7.45981144922565
H         9.75065494662954    0.67959975569516    7.48477917763997
H         8.29245456296984    0.30980993688159    8.40713119111007
H         8.32429823537330    0.03288984836017    6.66473951946670
C         8.93228371709895    2.24843515321837    1.13446545790940
C        10.26947656953876    1.83001136466026    1.18175151328465
C        10.86635080849876    1.37131869631131    0.01652960080073
H        11.89343271231174    1.04059281090272    0.04087590214496
C        10.17122960043848    1.33213801832331   -1.17530386152634
H        10.65297598929900    0.97548824832319   -2.07357888293816
C         8.85545823592602    1.74706261877489   -1.21106475521296
H         8.31381496912813    1.70783165860564   -2.14367823338823
C         8.21860381545314    2.21598409628959   -0.07116984149501
C        11.06988182430725    1.83737002166372    2.46596249503948
H        10.45565217384476    2.25423604195771    3.27037310090107
C        12.32987203382865    2.69897363433706    2.34746742464498
H        12.99777781895761    2.31137747478149    1.58229507505461
H        12.86493438546696    2.70340950509464    3.29511494744180
H        12.08371639129664    3.72857434840448    2.09291351990558
C        11.44400284477726    0.40528454016285    2.85710150875234
H        11.94931170308627    0.39982880719083    3.82074527638151
H        10.55047796609308   -0.21036768722164    2.92924928447333
H        12.10834257909896   -0.03578058719226    2.11842232567148
C         6.76770477200134    2.63703715877115   -0.15905751500313
H         6.45011932308067    3.03858009694110    0.80869575550304
C         6.54922593917052    3.72703923586615   -1.21175851172735
H         6.76336377057746    3.35436286050908   -2.21009720726836
H         7.18816308496658    4.58981823303111   -1.03017303985020
H         5.51350167491700    4.06064488230508   -1.18967207318124
C         5.89180975324324    1.42132664579235   -0.47402401286742
H         6.13590132450239    1.01529537119035   -1.45242179602315
H         4.84109464677430    1.70442670411782   -0.47047970272508
H         6.04572488483694    0.64255045909103    0.26935348363480

