47
CSD_code = EXUPUI | q = 0 | S = 0 | Stoichiometry = C16H25Cl2N3Ti | MND = 8
Ti        6.66637543737977    4.39830833127586   -1.53239895538260
Cl        8.07467014723281    2.78690358852659   -1.00248655567373
N         5.58665743499863    4.39833161050096   -0.16105772950936
N         4.13712547050723    3.28941165142240    1.37000047638405
C         4.71709602903190    4.39834155542084    0.77526380726851
C         3.22685125752118    3.72538822500742    2.30361130283680
C         4.60079749152572    1.91094223848799    1.19888828732407
C         3.70218865469505    0.95104137507700    1.98167187277526
C         6.03493802875895    1.82338544490742    1.73025883043386
C         4.55341926968028    1.53972612045526   -0.28574684790902
C         4.91250989722695    4.39864053164332   -3.05772119771441
C         5.70278137942161    3.25645234849235   -3.32768896454037
C         6.96748358583244    3.69707636392241   -3.77262627647648
H         2.63349064106700    3.06138922261472    2.89354389721651
H         3.76232557525817    1.13299362999963    3.05174197531876
H         2.66698939183974    1.03179494511609    1.65811113871551
H         4.03672020623957   -0.06646672589977    1.79889230051620
H         6.05911875474564    2.05034838376472    2.79434187816901
H         6.43126516300219    0.82426012320744    1.57486051655290
H         6.67287794242304    2.53399935029299    1.20266747305928
H         5.28319695361947    2.13703527720604   -0.83795897949277
H         4.79667494457830    0.48771690008716   -0.40794388393905
H         3.55850211632838    1.72073643848687   -0.68912801201527
H         3.85461188049204    4.39878080304123   -2.81909788200599
H         5.35667099704369    2.22966399135088   -3.33259285602207
H         7.76455751444167    3.05883721365086   -4.13208812369527
Cl        8.07494233562876    6.00939338280348   -1.00224137997940
C         3.22672934110773    5.07132438330663    2.30348463569356
N         4.13698286245901    5.50728895974078    1.36984325970226
C         4.60068000371977    6.88575698282464    1.19876025232580
C         3.70202676905321    7.84567438798136    1.98147083231015
H         3.76209015970290    7.66373142240886    3.05154583294291
H         2.66684841894432    7.76492990201208    1.65784197831895
H         4.03658366869987    8.86317686198626    1.79870816453648
C         6.03478675357594    6.97330946433844    1.73022159750694
H         6.05890052671131    6.74629993586521    2.79429544339598
H         6.43112922462323    7.97243839472619    1.57488430030677
H         6.67275097105919    6.26271285899048    1.20263849573760
C         4.55343052661106    7.25695664910538   -0.28587965220887
H         5.28325933969346    6.65963432994165   -0.83800525238106
H         4.79670421242650    8.30896420601910   -0.40805611553525
H         3.55855310072881    7.07595953028081   -0.68936177223248
H         2.63327179069144    5.73532957415213    2.89331274097887
C         5.70310431924017    5.54062694537490   -3.32759256249068
C         6.96768415088903    5.09968671892204   -3.77255803567928
H         7.76495132326050    5.73773954200682   -4.13193446939652
H         5.35729403628278    6.56752662915309   -3.33239578604751

