77
CSD_code = EXUSAS | q = 0 | S = 0 | Stoichiometry = C32H34MoN4O4P2 | MND = 6
C        12.58505406429268    9.55733771049305    5.26551320009315
C        14.66877852721841   10.94434989573858    4.16464112478698
C        13.87967137297064   13.68590955069053    5.97101855293323
C        13.96119429517083   15.03377699797954    5.64729705581485
H        13.12285010818084   15.51184980626889    5.16192150204174
C        15.11206225282597   15.74564493600492    5.93646331440177
H        15.16891596908092   16.79952638750124    5.70030864474108
C        16.19176205864739   15.11330781074353    6.52925888639730
H        17.08914726427188   15.67161515308736    6.75428777593945
C        16.12442677451691   13.76237057698520    6.83355084213281
H        16.97016881002832   13.26693154810520    7.28762735603233
C        14.97313307705932   13.05138324277113    6.55548739266509
H        14.90332004507495   11.99518594082912    6.79282281723603
C        11.91095998584771   12.09677028810666    7.21188551153105
C        10.83479514106423   11.21342453448757    7.22706092786595
H        10.40887517357871   10.88174885075361    6.28659753379843
C        10.31520088713403   10.75648691377774    8.42310825346227
H         9.48488812390117   10.06543101247607    8.42253899149001
C        10.86647235224024   11.18136602839628    9.62153284013478
H        10.47027890033015   10.81820936100283   10.55836250415785
C        11.92378733291759   12.07482022473220    9.61511131391392
H        12.34954036805244   12.41451384810381   10.54843395848327
C        12.44083951236635   12.53948160812529    8.41763072797982
H        13.26165634175662   13.24291851194365    8.42577986255106
C        10.59939066544873   14.58970510805405    6.17768958266974
H        11.33105302053903   15.15636135536940    6.76018888378248
H        10.03767720943545   13.95010178989637    6.87554176299071
C         9.62269196597764   15.53010903514654    5.47422316600718
H         9.13583377603651   16.17245494575137    6.22721348227079
H        10.17351333111544   16.16800528941594    4.77857900895781
H        10.62649843563794   13.49887142555804    4.45725542035209
H         8.11178892634860   14.16490406805328    5.29817183279888
H         8.08809090990929   15.32048265997622    4.13260485977734
Mo       12.73331397579446   10.94470229415260    3.91224020597647
N        11.29243683247888   13.81022627221940    5.16154784003298
N         8.69443107104435   14.73221846038903    4.69077386573430
O        12.52980404026349    8.72943030044048    6.05213778007271
O        15.80585553746300   10.91967849715413    4.28817851250137
P        12.44184160466156   12.65974132947252    5.54924493782968
C        12.88030937076524    9.55816028343543    2.55786103562123
C        10.79782806856270   10.94599032697718    3.65893514776253
C        11.58647592283553   13.68599230012913    1.85167789878938
C        11.50473802847114   15.03376641390326    2.17573557834417
H        12.34299659204517   15.51184510579812    2.66126797090593
C        10.35372689606617   15.74548567756637    1.88677711516825
H        10.29669837864524   16.79931910171966    2.12313152849790
C         9.27414898991535   15.11306951627285    1.29384474926575
H         8.37668175845432   15.67126284894956    1.06887994846757
C         9.34172949888210   13.76221198151323    0.98922472329651
H         8.49610007187927   13.26671925982078    0.53501081281542
C        10.49314770515564   13.05138015567571    1.26709925220570
H        10.56314567564642   11.99521840227846    1.02965395446043
C        13.55553624093735   12.09681491685641    0.61124670659449
C        14.63159208320279   11.21333050410716    0.59632423036427
H        15.05731888093393   10.88162863826627    1.53686267168409
C        15.15137644564048   10.75631504156107   -0.59961674173640
H        15.98167142664309   10.06523483602887   -0.59887346232514
C        14.60039581301775   11.18123956569010   -1.79815841246918
H        14.99683386381019   10.81812954591435   -2.73490295300979
C        13.54315453681189   12.07478525344350   -1.79197218285438
H        13.11760953912572   12.41450972247882   -2.72537670159555
C        13.02595275010684   12.53956138803997   -0.59460523510708
H        12.20510951285700   13.24296462251618   -0.60289636991241
C        14.86691654385549   14.58946187641593    1.64581838974039
H        14.13542398786076   15.15602889399820    1.06301353227594
H        15.42887295334643   13.94981308606089    0.94822554943063
C        15.84348445144942   15.52994234159438    2.34936454599144
H        16.33017872103895   16.17253473572876    1.59646579503230
H        15.29255658395135   16.16764052150613    3.04512955452096
H        14.83915559554830   13.49851859587946    3.36624451141087
H        17.35418283047709   14.16472697829935    2.52522573289052
H        17.37871433229881   15.32073947305053    3.69047808699278
N        14.17349782288284   13.81005475876558    2.66177499126151
N        16.77193053524135   14.73220683391949    3.13272588318948
O        12.93535272146970    8.73102482687003    1.77047199380080
O         9.66088341876764   10.92150283946854    3.53402507784315
P        13.02407141072769   12.65971525933811    2.27367305804968

