47
CSD_code = EXUWOK | q = 0 | S = 0 | Stoichiometry = C21H16BrN2O3ReS3 | MND = 6
Re        3.08490692528340    3.25122363384468    2.91492973787853
Br        4.93290104823470    3.03275959649842    1.18305781930291
S         1.26430565722234    2.97737506141630    1.00736754061456
S         3.09005679814178   -1.54468015159675    2.35699365520998
S        -0.14115228983458    3.93032875038083   -3.96393040538955
O         5.41981903609239    3.59226535428796    4.91164221049184
O         0.75638755930580    3.29833108063145    4.93565543912656
O         2.98770539654288    6.30273071377808    2.46319006449334
N         3.04802847142809    0.94631965589236    3.02536381228722
N         0.86656534569733    2.10772102779604   -2.43523984258479
C         4.51725546066224    3.45602098104427    4.21603253807746
C         1.62384634978791    3.28075021366982    4.18671213434853
C         3.02584801393308    5.17626627000984    2.67018608633914
C         1.26981051929208    1.24033383536813    0.45598576909622
H         0.49554399304956    0.74778625197752    1.04606430143193
H         0.97823096796299    1.27425770813240   -0.59602008677414
C         2.61539242958473    0.53497324712629    0.60263642958004
H         2.60292504354404   -0.37217879787824   -0.00553553549694
H         3.41603356226821    1.17948175498667    0.21915731701918
C         2.91812552894173    0.15378444129640    2.00692107355500
C         3.35429842280176   -1.14370472750502    4.02548468831129
C         3.28132089850709    0.25123050954636    4.19533949710352
C         3.42889230769034    0.77620838644503    5.47905218904726
H         3.34947010077028    1.84064928021595    5.64292506909102
C         3.66784396149578   -0.08140145563184    6.53100442429905
H         3.78601147750442    0.32470010325618    7.52337745871982
C         3.75897706003570   -1.45834655353485    6.33910742876149
H         3.95253436249387   -2.10491573694860    7.18076336444278
C         3.59725800196881   -2.00448780493304    5.08298808091333
H         3.65503265745198   -3.06864669586214    4.91752038416114
C         2.01073844084075    3.84144760493876   -0.42375739098485
H         2.54819558110244    4.68816226571225    0.00341547526810
H         2.72526344174886    3.17182813811729   -0.89932058883650
C         0.96411011849577    4.34300459609671   -1.41310098266871
H         0.04800228609897    4.61351215301750   -0.87660749326455
H         1.33168214523262    5.25507371353262   -1.89139555385122
C         0.63184164086091    3.36316219312518   -2.48062801409244
C        -0.12246416898260    2.28880744607614   -4.54051112730004
C         0.46387827729065    1.45409395735344   -3.56575960016690
C         0.58981678636323    0.09041515982830   -3.80904646309153
H         1.03973105712831   -0.54521448677776   -3.06267730324393
C         0.13608944956390   -0.41118014758955   -5.01033418206399
H         0.22904024990528   -1.46679995294113   -5.21583064998724
C        -0.43977234108502    0.42212867969140   -5.96713893626299
H        -0.78374593849325    0.00208724939877   -6.89997735178550
C        -0.57690250202230    1.77859185592843   -5.74414993870146
H        -1.02137959191820    2.42604364084982   -6.48361254242617

