29
CSD_code = EXUYOL | q = 0 | S = 0 | Stoichiometry = C10H9N9Zn | MND = 4
Zn        2.02483620079580    2.81743167364870    8.60876430832561
N         2.68609071076863    3.57590666224062   10.13201870294525
N         2.98227703354685    3.20136545700800   11.20253780898683
N         3.28660526846605    2.90559569720620   12.25012173540164
N         0.70782124449359    1.33352980123797    9.22392137544954
N         2.02471976141977   -0.52475067424281    8.60861124965394
H         2.02468510397169   -1.53678380255344    8.60855085891875
C        -0.41582785881541    1.80542759787081    9.76440291491829
H        -0.49653315199880    2.88363911276247    9.78798252103674
C        -1.41420551321677    0.99766835197591   10.26264672258092
H        -2.30360936270892    1.42814985058487   10.69087071003968
C        -1.23860086028733   -0.38151984029952   10.19685226586587
H        -1.99445234118518   -1.05262647122110   10.57503540611655
C        -0.08270508918728   -0.87820873987112    9.64035898614592
H         0.08699483395206   -1.94224975983960    9.57284636140178
C         0.88603906639197    0.01746719614548    9.15691107168111
N         1.36356398813383    3.57583656889277    7.08546964737803
N         1.06667929775950    3.20063065353599    6.01537128382131
N         0.76305724615097    2.90447036488545    4.96756094811497
C         3.16341351571661    0.01745197115246    8.06032619634372
N         3.34171811971390    1.33350723517734    7.99346082584353
C         4.46536283461973    1.80540026707328    7.45297074253128
H         4.54610161817589    2.88361072326428    7.42945616595355
C         5.46365886733100    0.99763792479358    6.95457156948908
H         6.35304690711471    1.42811386399481    6.52630964286766
C         5.28798216259816   -0.38154761799359    7.02024206816872
H         6.04376731509045   -1.05265809418491    6.64193396197419
C         4.13208631098201   -0.87822897475566    7.57674248756504
H         3.96232677020658   -1.94226699849013    7.64415146048041

