48
CSD_code = EYADIT | q = 0 | S = 0 | Stoichiometry = C17H23Cl2CuN4S | MND = 4
Cu        7.60156587261009    2.37467821103825   19.30467500307722
Cl        8.59769089298676    1.07719229272257   20.71395967275874
Cl        6.92883510706665    2.77746451821336   17.28979910663675
S         4.68206085566255    1.86872085360969   20.08178542082769
N         3.99366915222272    3.11007271383438   17.47496423098879
H         5.05506986142068    3.02452083248052   17.39045039593748
N         3.72947807265199    2.52185076921535   15.25653146856521
N         1.98614593404508    2.17147762661741   16.74588412813446
N         6.80649344484006    3.86693734277364   20.53434608843500
C         3.24508575423755    2.60349694419954   16.50746051550984
C         3.49465132809009    1.36764980304589   14.41660395480366
H         2.84949796126937    0.65256318342274   14.91808139606619
H         4.45105528137262    0.88182496300873   14.21202806072749
H         3.04475165803852    1.66003134658082   13.46524633182525
C         4.84884189796472    3.34600044903790   14.84478335330052
H         4.78400768425651    4.31680786723401   15.32899076411486
H         4.78888554837607    3.47807341353970   13.76533151121254
H         5.80819716781471    2.90326981335577   15.11552535457020
C         1.55777143674471    1.75925437384127   18.06270884888406
H         2.41229365693738    1.41536083775230   18.64141364915978
H         0.85642617435664    0.93144157920186   17.94988669251551
H         1.06075860689198    2.56815597389414   18.60559888801082
C         0.93050505613924    2.27914919532592   15.76488231301930
H         1.28543908474416    2.80659855188006   14.88418711456052
H         0.10071715266752    2.84409253357087   16.19758116498775
H         0.55609480146188    1.29580208211049   15.47038721776685
C         3.50885539381527    3.81411447523656   18.59527674315891
C         2.74432186403538    4.95712649134433   18.40310647603160
H         2.48746777289459    5.25151424094269   17.39553897768795
C         2.34208586865831    5.72318958011525   19.48302790590086
H         1.75658945934998    6.61537422277926   19.32314881332918
C         2.70716131446800    5.34581956711670   20.76419407955306
H         2.40692805067160    5.94321412683140   21.61146992438085
C         3.44268955408746    4.19330757034061   20.97013144340124
H         3.69269902792741    3.89631324269256   21.97564322926572
C         3.84646821475801    3.41346470422411   19.89413359340794
C         5.60370125131104    2.08570296733706   21.63434970442266
H         4.94192815952388    1.93313538126206   22.48675068339672
H         6.35402741697307    1.28273724338909   21.59981364500988
C         6.32654053729261    3.39017408838399   21.68989764422881
C         6.52838322698665    4.04024737137883   22.89748187512052
H         6.13149119707036    3.61974558559838   23.80921277349735
C         7.24963711368115    5.22313772887464   22.91418230077306
H         7.42518432633247    5.74533850228587   23.84251680533922
C         7.73394851372799    5.72334641378016   21.71224176120066
H         8.28933940864683    6.64711773012815   21.67638002816365
C         7.48271926692303    5.01655673803534   20.55487910622103
H         7.82354361599393    5.37003395641761   19.59092984010679

