45
CSD_code = EYADAK | q = 0 | S = 0 | Stoichiometry = C21H15Cl5N3Rh | MND = 4
Rh        7.86566324773639    9.67619545597108    3.91038807866646
Cl       10.04379598189394    9.96321104620541    3.55237911531338
Cl        7.28392119484795   10.65815795906781   -0.40124577232663
Cl        8.44878999227824   12.79111620212574    4.35710564764699
Cl        9.00280305857707    6.83146253191480    3.13691176883677
Cl        8.99277471545076    8.69311404438018    8.14713116985829
N         7.12275196014527   10.98891625797541    2.59524554586301
N         6.06594829538089    9.45758328805006    4.22873552675282
N         7.93682728301513    8.28007149647878    5.34546382980694
C         5.05486243099744   12.03921929179531    1.74344898184012
H         5.71480688378257   12.81583876048456    1.36355522679940
H         4.26675728101230   12.49854268700072    2.33671008179823
H         4.59412732017149   11.53289479161426    0.89507992114691
C         5.81862941153215   11.05635309884004    2.56849845889343
C         5.16419008028917   10.15505465581418    3.48572978934508
C         3.79964737508811    9.99978501817665    3.71036329789977
H         3.08515841374586   10.53872375278861    3.10942116881302
C         3.37311175810638    9.14677424854496    4.71905388835475
H         2.31860922854618    9.02535359435295    4.91167151976865
C         4.30103249226422    8.45078931231377    5.48169705369616
H         3.97798106394599    7.79465927480427    6.27366182930195
C         5.65691385734514    8.60965015209165    5.21141903193617
C         6.77142345845870    7.91611302408483    5.81044747938768
C         6.57726566733983    6.81119370849684    6.79617689507519
H         7.47790752335833    6.20682320040962    6.87731136833462
H         5.74700397360997    6.17655905556819    6.49346593213040
H         6.35131939762728    7.22545009278817    7.77893476396426
C         7.96197520625855   11.86009517555420    1.90870875924609
C         8.17711756062914   11.80579628114938    0.53131502159039
C         9.11140596399653   12.62600134519558   -0.07660881502232
H         9.26640428613346   12.55673861248519   -1.14142730550506
C         9.84050451513649   13.51904431482390    0.68981639394958
H        10.57194893506660   14.15394537338303    0.21588438202768
C         9.64990317103043   13.59567489668542    2.06022432271643
H        10.22426734804742   14.27957297970976    2.66340766417638
C         8.72051762651415   12.76889171182155    2.65888308352977
C         9.13647963694257    7.65505620770724    5.66717874043069
C         9.80240154396511    6.95064913637281    4.65445531308780
C        11.04684221983499    6.39165104382956    4.86591120175303
H        11.53849500348927    5.86306672371190    4.06570425615562
C        11.65211235882202    6.53551492054076    6.10402023319595
H        12.62870275313512    6.11127105041534    6.27427688129783
C        11.02239526860639    7.23138764497616    7.12163245452713
H        11.49645481019129    7.35469025971614    8.08219940354191
C         9.77264844564932    7.78394631977936    6.90255641039433

