80
CSD_code = EYADOY | q = 0 | S = 0 | Stoichiometry = C39H31Cl4IrN4Si | MND = 4
Ir        4.39514512463651    6.70844108588195    4.19691322169944
Cl        3.83469617670825    4.27468978058713    8.12904409160310
Cl        5.58269735052899    3.97033538574129    3.07712468827946
Cl        1.58132841008508    8.99318123983793    4.06862536634315
Cl        5.41861079021254    8.27678803058970    0.40432396446519
Si        1.47228989345849    4.92875848458169    3.54651431913259
N         5.05675827225299    5.32995150487712    5.55240003710276
N         5.73106737467537    7.67620415269660    5.05906652604430
N         4.30413278330080    8.42994762843199    3.16165588660880
N         2.92282696165788    5.77188408542991    3.21146736467725
H         2.91967111160753    6.06828932284988    2.23506840494625
C         6.82359923770499    4.88507491229556    7.24810906002389
H         6.56143907671111    5.08786607321096    8.28614451900343
H         7.88746470047665    5.07826996441381    7.12137412199229
H         6.62866146148337    3.83509205440795    7.04461445992214
C         6.03551378944815    5.76175294474284    6.32876316518864
C         6.40659426704469    7.12837287962968    6.11412965429215
C         7.38341673763142    7.86379070815874    6.78318542224644
H         7.89747116527069    7.43756232556144    7.62929218447626
C         7.68369069347842    9.14668006714633    6.34908858644985
H         8.44231413544152    9.72293488348266    6.85560723900060
C         6.02533220834099    8.94050074087903    4.62731951401332
C         5.18222634061627    9.33999965169200    3.53981843438924
C         5.26754400002353   10.70124912822950    2.92906234191575
H         6.15617141154849   10.77445054499136    2.30130756182569
H         5.33768965967410   11.45983865715738    3.70597498191776
H         4.39342404184279   10.90390858588671    2.31463498895871
C         4.62556206585875    4.00782685119619    5.56174439283738
C         3.99912243982206    3.40002165205415    6.65513697790653
C         3.49119200922394    2.11576919377031    6.57037037351637
H         3.00223130810724    1.68477258210699    7.42918989397793
C         3.61611452101200    1.40087300201495    5.39262314806717
H         3.21582038626439    0.40216513642161    5.32582835147852
C         4.25941768383983    1.95870556134294    4.30042980170987
H         4.37724681294545    1.40275675702255    3.38528798461670
C         4.75482948438853    3.24353154295234    4.39414194004250
C         3.39360078810324    8.66850121415236    2.13072849408273
C         2.04279276105930    8.89756066975129    2.41858773319460
C         1.10191419036933    9.03621471860819    1.41594661964934
H         0.06949052225345    9.20527107832925    1.67400504867067
C         1.49926872491409    8.94192478568895    0.09302462714400
H         0.76812709982872    9.04164896178208   -0.69269132563175
C         2.82713116909666    8.71549931783293   -0.22747028618898
H         3.14281229382114    8.63870537514278   -1.25554971384445
C         3.76190732917529    8.58529456037617    0.78434670088225
C         1.22723879472892    4.75989702425670    5.41500206132668
C         1.45414841264203    5.86044859204885    6.23412285652630
H         1.89264940775770    6.75003207075868    5.80394688509197
C         1.13616684950808    5.83477296103458    7.57977222541201
H         1.31372764299660    6.70575345580092    8.19588183104851
C         0.59023208698652    4.69131991092156    8.13911048330753
H         0.33408337511610    4.66758761402059    9.18913463029049
C         0.39052251190912    3.57377732720955    7.34696667988571
H        -0.01838093404472    2.67118422379567    7.78069581729597
C         0.70366441001581    3.61337716377855    5.99938465325026
H         0.54426205177579    2.73429621951851    5.39160716368756
C        -0.01801282877502    5.91788057663837    2.87212336334273
C        -0.85923000362700    6.65687101905625    3.69553806221801
H        -0.69072153092442    6.64956479126305    4.76335812158112
C        -1.90855766018011    7.39391907550602    3.17504637132196
H        -2.55023648145536    7.96163157032993    3.83492554108759
C        -2.13897517631449    7.40280872781624    1.80969154119383
H        -2.96030753438821    7.97449546740003    1.40015936605729
C        -1.31265441269741    6.67160673816782    0.97237127775102
H        -1.48852296341015    6.67029172727270   -0.09457984613571
C        -0.26416075653773    5.94269025831932    1.50301193844269
H         0.37520299726258    5.37055393893928    0.84427972472786
C         1.31817646121289    3.25320921230013    2.66357488884709
C         0.01312807238297    1.29941277815714    2.09147017448875
H        -0.90464843246323    0.73398971120949    2.17797378967676
C         1.05213331093319    0.81576614633048    1.31403112570858
H         0.95088108503834   -0.12856038220164    0.79773232511050
C         7.01293494653491    9.69009111304505    5.26155317454432
H         7.25080186453728   10.68145609350964    4.91164194337325
C         0.14638139800802    2.50817073395488    2.75023726064558
H        -0.68073702480944    2.88934578254652    3.33348197052121
C         2.21417372278811    1.55750602443588    1.19091538656416
H         3.02221695140814    1.19648485020206    0.56900170186964
C         2.33875435630713    2.76268040274293    1.85940415678417
H         3.24130626361439    3.34422929623069    1.74962048447028

