129
CSD_code = EYAGUH | q = 0 | S = 0 | Stoichiometry = C46H76Cl2N4Pd | MND = 4
Pd        8.55447632040372    3.22619288129024    7.30408912465861
Cl        6.78903098912596    2.74265684260262    5.90149485524716
Cl       10.31270355652715    3.70774003845941    8.70221639119949
N        11.03408602997651    0.72697492840863    4.80926141041774
C        10.29235375424135    1.30795248443262    5.64845849970874
H        10.09230990710681    2.39773895398230    5.61186331877621
C         9.65295561172806    0.57718570569481    6.73297447349504
C         9.95179909851278   -0.89173254476372    6.78217588065950
H         9.04183393056321   -1.47218049098160    6.62938805399460
H        10.39002381272637   -1.17253757279423    7.73697289960427
H        10.65117271952889   -1.12014028026744    5.98333945751092
N         8.89197260759618    1.21273750031258    7.55131098226820
C         8.29490869838616    0.47242096152591    8.65765970829425
H         8.16167519223956   -0.56070186697765    8.32046384490196
C         6.88234772562789    1.00531061796177    9.00112234625410
H         6.79386055521778    2.01761521691240    8.56649223102233
C         6.69127368301881    1.15637048461505   10.50852414906356
H         5.66047322318915    1.43202972931574   10.73756447045138
C         7.30117305501608    0.01421248383748   11.36045285306369
C         8.63591100128252    0.77094981391809   11.18912436142097
H         9.36398846556894    0.71341345688576   11.99908507590274
C         9.29800571892541    0.47080697945240    9.84990793680189
H         9.80952513762055   -0.49258565936972    9.89440653431539
H        10.05409441360945    1.24083878811200    9.67269916436494
C         7.82813804206481    2.06170836100291   11.01640468236993
H         7.61416759064767    2.57922372515504   11.94774670857308
H         8.24971317093341    2.77196302141103   10.30229929504446
C         5.79686304826068    0.16913859032361    8.32425464091023
H         5.91708499304588    0.22120077579019    7.24391015808403
H         4.81568230315914    0.56985077573194    8.56931143367170
H         5.82820274989404   -0.87131678157604    8.63501914659074
C         7.21217850036422   -1.44346464675524   10.92761006264877
H         7.61534875127052   -1.62672615381991    9.93983238382982
H         6.17448458836340   -1.77180779008649   10.94346162578227
H         7.76998403646374   -2.05855609287910   11.63267052872306
C         6.78578274695720    0.08033033363185   12.79978941346809
H         6.80744957391229    1.08805350691988   13.20178546071398
H         7.39396565680264   -0.55237451631067   13.44353855132230
H         5.75863504764343   -0.27801212805392   12.84177988235781
C        11.62193794113985    1.46247603879709    3.73338148320010
H        11.42319873691896    2.53744877910214    3.86298300751977
C        10.91409199652800    0.98654478321404    2.43284233308497
H        10.39317895909305    0.05349897476153    2.68520072116856
C        11.92454451575891    0.63238885581580    1.34339514895978
H        11.41396618779272    0.39749109931762    0.40816476526031
C        13.14529654542278    1.58300419465416    1.25614726215346
C        13.71475257141819    0.75478185087217    2.42929429023346
H        14.79733961691717    0.63010396751403    2.48418513086313
C        13.15057827368484    1.21535936181330    3.76680148317038
H        13.34967257874470    0.44141585513356    4.51223851573969
H        13.65245524754458    2.12563097733606    4.09869267556054
C        12.86510101112501   -0.42639351666417    1.94370793106338
H        12.43908866207854   -1.05658554618311    2.72144553500074
H        13.35948009369190   -1.05236506395151    1.20640970911104
C         9.84717390825778    1.98301779994814    1.98777831627684
H         9.14017851804040    2.16271338114423    2.79611443286159
H         9.29500488764691    1.57925959341625    1.14160816886422
H        10.28533026123979    2.92955901503815    1.68580315690788
C        12.99387840506414    3.08950094690772    1.42229656399205
H        12.43241939997258    3.50023133238943    0.58478684313061
H        13.98112916533509    3.55009524687349    1.42171170169220
H        12.49809389413382    3.36997232343569    2.34206856744901
C        13.92624553599604    1.35427588695554   -0.03909017524280
H        13.38779983980795    1.79108864364714   -0.87831564845075
H        14.07957110696996    0.30063052958661   -0.24874690371237
H        14.90232038618175    1.83204894866087    0.02497308258773
N         5.87049351482505    5.66760381381587    9.63893037876805
C         6.70220305804805    5.11162712626059    8.87012080136005
H         6.97931070294786    4.04265759353679    8.96680933889951
C         7.36295896204253    5.84908531291809    7.80309242640844
C         6.98814864093203    7.29738602834747    7.69565138840498
H         7.86253243524749    7.93805471411453    7.78247879092995
H         6.29304702188999    7.52558313397616    8.49832402965201
H         6.50062006588796    7.49616525065563    6.74115014370376
N         8.19608214352651    5.23394537022804    7.04139775432828
C         8.88507550378019    6.00003309257066    6.00848629001318
H         8.21686128145584    6.81473683159838    5.71089853801012
C         9.12982187165670    5.14910692238009    4.73828649863995
H         9.03317766942042    4.08641544043424    5.02611629995091
C        10.54905788728560    5.33231190654129    4.20539331696583
H        10.67126896043208    4.80895214863120    3.25560717890545
C        11.08336163870534    6.78615423795802    4.26126186820672
C        11.39774946428491    6.47864448672207    5.74119923860228
H        12.26046570235011    6.96923509833756    6.19338643920504
C        10.16945571905422    6.62511563642969    6.63096724925896
H         9.99185997378241    7.67957959571576    6.85076615858717
H        10.38195558956861    6.11951320556436    7.57713893712697
C        11.50913291551760    4.99818118389766    5.36143186592847
H        11.14446878234846    4.30329343158912    6.12065684177811
H        12.50485936283520    4.69368067423532    5.05017888842560
C         8.04382367985886    5.39393141203792    3.69124473273814
H         7.07470938620716    5.11156148069247    4.09789433888269
H         8.22969171345179    4.77604991459360    2.81546867708380
H         8.00682823054106    6.43248713537755    3.37478382654671
C        10.19802257255776    7.97813595166695    3.92146092562940
H        10.75379659200541    8.89729031941605    4.10267249292311
H         9.28856551273637    8.02216045556512    4.50688570238100
H         9.92899604970842    7.95076507426530    2.86705719408847
C        12.35557061622057    6.92709720012851    3.42268938104053
H        12.85792373862923    7.86272305967283    3.66124774976414
H        12.10180431185975    6.93687891532975    2.36405411891832
H        13.05648743640707    6.11644203305222    3.59344378662469
C         5.21209737299593    4.91205065912956   10.65857593554840
H         5.63763724512117    3.89790861796389   10.70597965107529
C         3.72056570004143    4.79841907144262   10.23292193012891
H         3.56299981985697    5.54874190605788    9.44692454450333
C         2.78185220900013    5.17325974082210   11.37807111397272
H         1.74292862207870    4.99353424316423   11.09727000175065
C         3.22778834224964    4.67017659215536   12.77441748037121
C         4.16186746421525    5.90052457952855   12.78022735653195
H         4.37362544371041    6.37262520971970   13.74086838728706
C         5.44774585094208    5.63104209563696   12.01007933899961
H         5.93440496491814    6.58709804791685   11.80179780116459
H         6.13642061879082    5.03862751836286   12.61453443493636
C         3.17903420984671    6.59028742609971   11.82576560078704
H         3.62441033251844    7.22430094175317   11.06211194509622
H         2.38633860635757    7.13745437336413   12.32784724505181
C         3.42523094889898    3.43642779907972    9.61056838570684
H         2.40989571077662    3.42162906627174    9.21979488499563
H         3.52005529873420    2.63561982068832   10.33774629860648
H         4.10703902201682    3.24542210000310    8.78345319357969
C         3.83321031854334    3.28574697198310   12.96609895311671
H         4.68265592139718    3.09847644630728   12.32279568901873
H         3.08007612289771    2.52203088910302   12.77926219839138
H         4.16685641282745    3.18169550806517   13.99798314157765
C         2.09483263544330    4.80612147889817   13.79308763071872
H         2.48688547164878    4.69893746697515   14.80298921425927
H         1.35455607768143    4.02471427390585   13.63053696569762
H         1.59223629444957    5.76556727463341   13.72631699243540

