114
CSD_code = EYAJAP | q = 0 | S = 0 | Stoichiometry = C58H36BF15OP2Pt | MND = 4
Pt        1.95108900890952    2.74164245678167    4.24993493770673
P         2.78464573531660    3.86925553735713    2.40301388203182
P         3.74646913164269    2.90660176790796    5.74537013942165
F         3.77759508020046   -0.69870777580787    4.10926594260153
F         5.81638843918137   -1.34940543397056    5.73026399250853
F         5.35357116239176   -2.84541639169188    7.98005780621982
F         2.80426509660528   -3.64223989867997    8.55530612828306
F         0.78190140094736   -3.01665686655120    6.92384171449483
F         0.81354046906368   -4.34397438345308    4.34601013954790
F        -1.42382796956259   -5.80303380706666    4.49491812177035
F        -3.86232333629848   -4.57457750237665    4.71563125227260
F        -3.97550340363735   -1.83829949203481    4.76631880861304
F        -1.76389682917308   -0.38524241897678    4.61702781706530
F         3.22438723376343   -3.46189782032813    3.39998714875121
F         3.74628599783954   -4.12658024966492    0.88506780757373
F         2.37192747495072   -2.97984486949348   -1.18314406062248
F         0.40744895338264   -1.15111487231523   -0.62884901593532
F        -0.17364293942370   -0.52328600082821    1.89792517031973
O         0.89024869793700   -0.00845098194270    4.25331809871919
C         0.01041198090448    2.50954783322050    3.56064185618529
C         0.02911533713294    2.05269434069728    4.91763888917108
C         0.52753708170739    0.77559209305390    5.22995733873850
C         0.45236710472183    0.27616410389034    6.64268050050900
C         3.55638600953921    2.66175948807975    1.29574617771162
C         3.37646010544893    1.32316489172801    1.62723007185799
C         3.97199969727558    0.33356681213484    0.86769506157833
C         4.72759903157039    0.67582561301036   -0.24152266216788
C         4.89692327156244    2.00888911248555   -0.58430114464430
C         4.32361873577556    3.00471461556735    0.18534486984790
C         1.51331218536174    4.71965901206245    1.40822385229893
C         1.41418134791012    4.59081895918378    0.02888173546765
C         0.42687602208595    5.27358915105164   -0.66108837366226
C        -0.46549749761167    6.08752932163936    0.01518412096255
C        -0.38366460076398    6.20561149279473    1.39362846553054
C         0.59459849949161    5.51879423440044    2.08623887161807
C         4.04358217986113    5.18190668709497    2.58104516074402
C         3.66661627344657    6.48951812323492    2.87579476436277
C         4.62447534289307    7.46299017264349    3.08854296475553
C         5.97007835385589    7.14678418285267    3.00347541140401
C         6.35219237444038    5.85067860604711    2.70233634588326
C         5.39779337890533    4.87064001249088    2.50231654893116
C         3.58219858201388    4.53715901812594    6.54410432227556
C         2.73682822215867    5.46633471373880    5.94858191425867
C         2.58959921399842    6.73028113821626    6.48793511645267
C         3.28273006715955    7.07245452054498    7.63730399006968
C         4.10829538425277    6.14381017895674    8.25125162425724
C         4.25845082369953    4.87919767906717    7.71177149527477
C         5.44579915342563    2.92574084232900    5.08173098469375
C         6.42350412530804    3.83556241537960    5.46419348781854
C         7.70120768143071    3.73337627256694    4.94213536460450
C         8.01211634994943    2.73111993809212    4.03793511009907
C         7.03584851748988    1.83149473968874    3.64060734026500
C         5.75760509674975    1.93211541401048    4.15698977884857
C         3.95681275689928    1.85381866971706    7.22129670471120
C         2.90997053770482    1.84124232087050    8.14083951546684
C         2.98201339968733    1.05245282827589    9.27305750579855
C         4.10278735521494    0.26750744257964    9.49763853376826
C         5.15071818864020    0.28465875059129    8.59242119415840
C         5.07979931217470    1.06947996238688    7.45346374004380
C         2.21066383993139   -1.88819611664747    5.40585530057850
C         3.51406147192923   -1.45618602668304    5.18636836372659
C         4.57768955396178   -1.77307132343366    6.01855014093921
C         4.34712313597631   -2.53377365113040    7.15689814972055
C         3.05256676586512   -2.94665401656125    7.43944058917969
C         2.01697215178396   -2.62276509338831    6.56833052864010
C        -0.35994728694073   -2.29982143207588    4.49827395905695
C        -0.35351939385397   -3.69307215269930    4.45940224762947
C        -1.50287688281025   -4.46845810849077    4.53459784273270
C        -2.74262674624488   -3.84920441037599    4.64212724044534
C        -2.79520996176332   -2.46357015531886    4.66621568278600
C        -1.61996119239477   -1.72017903728585    4.58870168669271
C         1.51768163164157   -1.92712038262412    2.77383014334052
C         2.49554775219323   -2.86190750960891    2.44796207361478
C         2.78556241570000   -3.22881641144686    1.13534509622297
C         2.08940983119683   -2.65126473020365    0.08183970526838
C         1.09834824296299   -1.72175029824974    0.36753519923951
C         0.82524779911438   -1.39239001494006    1.69043746757637
B         1.06281155413234   -1.49457581502694    4.29939507972055
H        -0.60778670796574    3.37526801074814    3.34400289226907
H        -0.04092311034561    1.74334938881204    2.79262231464111
H        -0.40869760888467    2.64671242757310    5.71477461419678
H        -0.02734021071752    1.00989995347665    7.28417081273590
H        -0.12534181654370   -0.64546566088476    6.67066188959376
H         1.44416701243012    0.05780077389721    7.03700953909650
H         2.77323151073829    1.06953205187160    2.49688530955919
H         3.85760047073794   -0.70034734198012    1.15211114850353
H         5.19018333068176   -0.09590556410377   -0.83814039738768
H         5.48674206418258    2.27241360058173   -1.44982529499868
H         4.48009761084079    4.04533061368957   -0.06491489756426
H         2.09533488979164    3.94747277841366   -0.50740273236884
H         0.35328805279581    5.16542829866299   -1.73296086233038
H        -1.23245801517700    6.61860570995615   -0.52806816799804
H        -1.08969960292034    6.82524919703743    1.92696945761224
H         0.63820030908808    5.57995981741825    3.16691042967683
H         2.62073628440609    6.75315100374437    2.92278837833224
H         4.31970150842597    8.47353871655615    3.31697582422271
H         6.71725024328147    7.90896352827357    3.16578292340736
H         7.39873717216494    5.59682199713004    2.62524811563858
H         5.70636813611140    3.86078918270242    2.27796644116358
H         2.18615889674869    5.17138050450260    5.05761715760871
H         1.93226926743618    7.44760137464759    6.01899957254638
H         3.17213805630305    8.05876705105642    8.06241626889666
H         4.63660772468334    6.40672398592066    9.15596929988538
H         4.89085160963261    4.15182079927709    8.20233064300633
H         6.19094171004109    4.62735984403374    6.16068549668130
H         8.45933600662575    4.43999405834000    5.24715993990409
H         9.01331769066131    2.65323641944985    3.64073531977821
H         7.26749194394066    1.05169045104432    2.93077747885561
H         4.98938594481474    1.24181253107134    3.84279925818915
H         2.04648838506760    2.46987813510971    7.96135697198512
H         2.16665440626954    1.04823733901923    9.98131422988430
H         4.16059053052501   -0.35273195310846   10.37905652117317
H         6.02946967728181   -0.31638555147014    8.77189706177815
H         5.90054555632577    1.07570651290558    6.75139616384556

