63
CSD_code = EYAPUP | q = 0 | S = 0 | Stoichiometry = C26H20FeN10O4S2 | MND = 6
Fe       -0.66594162548346    8.63170800297712   -0.00017034854107
S         2.93921868068768    7.61523672587990   -2.64441487722334
O        -0.09222230480862    3.74392689288228    4.95446106809734
O         0.57524128816099    9.86860699539201    1.48286830710011
N        -0.39374978628895    7.08643588889695    1.13106602859528
N         0.36070750085094    2.48459756110062    3.21354534196376
N         0.39774252958309    1.70954476176537    4.29490173676704
N        -0.06413282647158    1.20212451431431    9.34308026920431
N         1.02128646546668    8.33422237009839   -0.80014700745559
C        -0.03966999473577    5.89519184889966    0.62876581149448
H         0.14912407313917    5.87172741781423   -0.43534841274435
C         0.12731163078999    4.76744548015445    1.39869272829541
H         0.41493399840087    3.82450556517051    0.96424944556664
C        -0.07941112325103    4.85711536502101    2.78027614889155
C        -0.42704889486852    6.10434846590379    3.30840347129692
H        -0.58857148300813    6.22629395517851    4.36740646258877
C        -0.56726308283364    7.17568253896535    2.45442526113101
H        -0.84680709429709    8.14950179690068    2.82665528669582
C         0.06932709741595    3.69411379544100    3.61057262835875
C         0.12845535255319    2.46127235985379    5.32547729978112
C         0.05933716432155    2.04124199443470    6.70538073347912
C        -0.25426030475022    2.94162894918431    7.72322732047492
H        -0.45468465974289    3.97823683972116    7.50192748877555
C        -0.30073599106362    2.46193595316813    9.02200001444804
H        -0.53967019535261    3.11806915992068    9.84841416244140
C         0.23252452944687    0.35119025446719    8.37454866918796
H         0.41732644204759   -0.66693732011342    8.68962459710670
C         0.30935141298296    0.70940468477891    7.03949203568776
H         0.55294576769132   -0.00013785264103    6.26632031464711
C         1.81624320124889    8.01393379694630   -1.60800324075345
H         0.57972686514174   10.82501898022816    1.37364642816490
H         1.45557506349945    9.55734376311054    1.23565815750096
O        -1.90679001557108    7.39503033072328   -1.48344232487506
H        -1.91125865583356    6.43859405635715   -1.37448151837201
H        -2.78707547952199    7.70630076413221   -1.23616120749497
N        -0.93752836397463   10.17702330467422   -1.13109938171593
C        -1.29273166280695   11.36799098264991   -0.62888382915895
H        -1.48207138944281   11.39118326288753    0.43513987049684
C        -1.46035751484645   12.49562801524728   -1.39882619113992
H        -1.74886242143455   13.43831270538876   -0.96441500587856
C        -1.25301941052608   12.40620965422249   -2.78034298194319
C        -0.90424493811843   11.15924114966344   -3.30838565470577
H        -0.74217295291316   11.03749630104024   -4.36732915616330
C        -0.76352972903300   10.08797523625575   -2.45442378807030
H        -0.48324243136190    9.11435683571453   -2.82662881001841
C        -1.40219366362512   13.56911586639906   -3.61067351586333
O        -1.23992880557718   13.51939387070720   -4.95449873423223
C        -1.46142221680497   14.80187058024102   -5.32565762538851
N        -1.73177544656710   15.55342170955701   -4.29523281086034
N        -1.69464439437060   14.77843599305705   -3.21382689499858
C        -1.39197437681175   15.22188083271630   -6.70555022061446
C        -1.07698192321434   14.32170934987298   -7.72315896518724
H        -0.87577039401930   13.28529316073182   -7.50167754971394
C        -1.03022213280765   14.80133798163103   -9.02194422405451
N        -1.26788823557331   16.06088723193664   -9.34326947560542
C        -1.56591271437890   16.91161210478780   -8.37497014463816
H        -1.75136933750873   17.92956516200303   -8.69022053448117
C        -1.64307106025828   16.55345114474480   -7.03991883409341
H        -1.88767206747286   17.26285799934037   -6.26694074888213
H        -0.79037971925982   14.14532213127699   -9.84818732964989
N        -2.35291695187676    8.92962070317137    0.80006751910206
C        -3.14854343908707    9.24338710475736    1.60976632321134
S        -4.27205785187370    9.63526296830224    2.64817041392797

