35
CSD_code = EYAYUY | q = 0 | S = 0 | Stoichiometry = C16H16HgS2 | MND = 3
Hg       15.31214806836213    1.68497020509846    1.51328307474146
S        17.39205804572009    1.00551384386515    0.14551613421196
S        16.21645057062621   -0.88657873058769    2.76133390451016
C        18.32290357043045   -0.08621774563274    1.14499209833865
C        17.91135068722411   -0.82236572748258    2.19895116248162
C        19.70989605178593   -0.20548177770973    0.64997637857703
C        20.24318346936711   -1.45429242268600    0.34361279468975
C        21.53633795007643   -1.56008593927231   -0.13247814841590
C        22.31027660396348   -0.42510992404030   -0.30951358359919
C        21.77951870406192    0.82095287443321   -0.02133527121345
C        20.48422587085001    0.93243550064234    0.44845118625650
C        18.81784865858745   -1.66439588830085    2.98908518237295
C        20.02880001063264   -1.16048150971565    3.46182377429926
C        20.87171151095492   -1.95801649778616    4.21135252984486
C        20.51679570971888   -3.26321433257650    4.51140696019111
C        19.30701160988581   -3.76590354554553    4.06199306468627
C        18.46059493846397   -2.97244393632679    3.31130748678017
C        16.45303435326266   -0.48786228347681    4.52595051726654
C        13.37841316878318    2.59617566920319    2.27542938921821
H        19.63685633901890   -2.33885986949910    0.47089113224297
H        21.94071937381510   -2.53335588767196   -0.36969504604136
H        23.32172955478129   -0.51125791030077   -0.67918398314288
H        22.37518908999004    1.71048836977193   -0.16640927322223
H        20.06486363871917    1.90385710548684    0.66738395641889
H        20.30405719774813   -0.13993701012191    3.24058090509093
H        21.80878991414782   -1.55639859826533    4.56835106314005
H        21.17795847478811   -3.88413392805893    5.09753827818741
H        19.02121786514339   -4.78123828310481    4.29605277828109
H        17.51774804730927   -3.36524075199526    2.95707075128809
H        17.04295877626381   -1.27409452110288    4.98812969828154
H        16.95306989810167    0.47082040242464    4.62213934185084
H        15.46263132723674   -0.44808873048632    4.96758412157639
H        13.34090251230291    2.51265610747497    3.35941930092787
H        13.30205473000204    3.64217832641949    1.99122624402371
H        12.54609370787704    2.04410734692351    1.84388209585958

