98
CSD_code = EYEBOA | q = 0 | S = 0 | Stoichiometry = C53H40Br2P2Ru | MND = 8
Ru       -1.10150627770358    9.40834866005307    3.82528317529668
P        -3.15380552513480    9.86960667489344    2.96721204493525
C        -3.30835533760111   10.90431903233282    1.46704635642193
C        -4.55409549308441   11.34178969155158    1.01842768177850
H        -5.44300683483312   11.08998726537306    1.58070198202077
C        -4.64936101030149   12.09345678632361   -0.13703714592915
H        -5.61701399780627   12.43073447099343   -0.47933063650519
C        -3.50893991635711   12.41266044292987   -0.85944870765987
H        -3.58935733720969   12.99960933262405   -1.76267761118122
C        -2.27027299386848   11.97886235318663   -0.42097679302719
H        -1.37835113948842   12.22616887410947   -0.97854402645368
C        -2.17278547516594   11.22934657815413    0.73855932378492
H        -1.20578323456978   10.90102739779737    1.09333208195940
C        -3.94788352773332    8.31630527504950    2.40691872127354
C        -3.95809401410714    7.24880294342201    3.30449055657542
H        -3.50287147392661    7.37544859047209    4.27975436376869
C        -4.51895695966897    6.03681429566875    2.94914215310978
H        -4.52812655102426    5.22077770215991    3.65743324493583
C        -5.05753666278228    5.86557518900273    1.68375204791296
H        -5.49027777782170    4.91706970976725    1.40151716755583
C        -5.02555960672653    6.91145279084890    0.77812413950362
H        -5.42947093853101    6.77885016286522   -0.21530223776751
C        -4.47540074009273    8.13156410735915    1.13373825775965
H        -4.45424672307713    8.93357992236372    0.41024422240766
C        -4.44413974844597   10.62448678920235    4.01654863677201
C        -5.27534071048414    9.86687443174471    4.83418952714383
H        -5.21888870273158    8.78941684284182    4.81475090609429
C        -6.18388487592509   10.49213094169470    5.66895650923398
H        -6.82293652121116    9.89844126440134    6.30445738763425
C        -6.27624673721216   11.87297647520817    5.69495965370759
H        -6.98591784491038   12.35394977602570    6.35069298713696
C        -5.45250952611478   12.63366135893371    4.88187632549519
H        -5.51791670758584   13.71171811763529    4.89775376190526
C        -4.53449769083869   12.01390917371791    4.05679043360180
H        -3.88409766657112   12.60890486900395    3.42960231930926
P        -0.61275788297542   11.46861758018362    4.66695065125854
C         0.09779342944419   12.53240547243342    3.36943786650023
C        -0.75618930580718   13.28435404392678    2.56614677672311
H        -1.81475305921111   13.29547634578214    2.78891617285836
C        -0.25908055206505   14.00778959394644    1.49878029038936
H        -0.93019899210823   14.59539521996556    0.88911341482221
C         1.09523506552411   13.97119336845983    1.20731751824489
H         1.48540338342943   14.53439534396586    0.37227711412471
C         1.94830317653803   13.20466072076319    1.98513718495119
H         3.00329278671571   13.16676188608124    1.75340281490496
C         1.45376899803753   12.48461630503607    3.05747109668624
H         2.12202775570799   11.88586073073156    3.66235903855725
C         0.69855644150375   11.45457974772005    5.94453323683802
C         0.87059414168663   10.30618633561669    6.70757609694939
H         0.24878617887155    9.44170553059972    6.50345615021099
C         1.81586074532806   10.27468475636280    7.71732519400538
H         1.94675035907216    9.37811754261361    8.30568036538177
C         2.59257849053342   11.39208558694050    7.97319930882379
H         3.33574645598983   11.36764722245451    8.75667254885211
C         2.41029300894299   12.54688464009348    7.22832485044917
H         3.00831047949655   13.42271490015241    7.43503016605009
C         1.46180467571214   12.58461186599001    6.22365272938662
H         1.31544834818780   13.48977526263333    5.65083501531382
C        -1.72625521977623   12.60112891034204    5.57527485367670
C        -2.61578622025909   12.01941959356913    6.47331376154258
H        -2.68845056522307   10.94164844692395    6.51374380412113
C        -3.40374179435797   12.80902646785121    7.28961242613685
H        -4.09247673959158   12.34548219786673    7.97954786536852
C        -3.31110379046766   14.18864278241384    7.21363384715789
H        -3.92793070686589   14.80889909036874    7.84703278633341
C        -2.42247619513573   14.77319985574025    6.32628034448158
H        -2.34448636343687   15.84972236250845    6.26880246798672
C        -1.62305816361098   13.98736184210939    5.51567768455734
H        -0.92717616067746   14.45899193582855    4.83620911119095
C        -2.06190529543354    8.92605303587791    5.48985852858372
C        -2.62210578096867    8.49904268699132    6.49119639942211
C        -3.29284380496363    8.13738338598081    7.59949265285843
C        -3.91973665369803    7.84079266936091    8.60129485315829
C        -4.65086383149804    7.54033176631280    9.75182289557149
C        -5.51737045148885    8.44198417442114   10.25709199439074
Br       -5.80113969149383   10.12714066998297    9.42120962024350
Br       -6.49362296444164    8.21229448175531   11.86928619259829
C        -4.40681956813597    6.22414994812839   10.37655390415596
C        -3.09829748230006    5.84359470730226   10.65883351273808
H        -2.28771540757405    6.51959468774203   10.42599008723630
C        -2.84307313627089    4.61759671205912   11.24315695297315
H        -1.82589114909817    4.33350066000760   11.47035954049526
C        -3.88720130205939    3.75585949826716   11.53659293623629
H        -3.68636164386255    2.79854241656779   11.99449878354845
C        -5.18817344141837    4.12119677905809   11.23542089827081
H        -6.00425935244966    3.44753176781494   11.45130343676244
C        -5.45049197476400    5.34967233842635   10.65709523901718
H        -6.46628795226752    5.62140209171704   10.40935154733335
C        -0.61771516570637    7.38632419371430    3.00963587879129
H        -1.21032289247617    6.48212929453391    2.95468613847416
C        -0.45931409708636    8.33184537035749    1.95603414611839
H        -0.96474602509830    8.28320686241244    0.99845301386146
C         0.56465561122309    9.22913396989657    2.31103137844046
H         1.02351367887736    9.96779348849867    1.66634926313456
C         1.05934116270735    8.83668148899582    3.59012497031646
H         1.94382902344715    9.23695043113407    4.07187057907454
C         0.34740827580473    7.68897179478841    4.00542713182451
H         0.57241538722086    7.08152684606742    4.87291416229572

