57
CSD_code = EYECAO | q = 0 | S = 0 | Stoichiometry = C26H24N2NiO4 | MND = 4
C         4.78488980079027    9.14098866411211    7.18007547973194
H         3.89764364596728    9.63680015116903    6.92022614841088
C         5.81406852355269    8.60416131007270    7.47103561203052
C         7.02508984959314    7.89171393000396    7.84807668289451
H         7.66405837210751    7.75116095409796    6.96273478709171
H         7.57398427464205    8.48360826291727    8.58926638877379
C         6.25360954557417    5.62029350708174    7.78346273357133
C         5.87487817047880    5.70022193245375    6.42892993653370
H         5.95935863430015    6.62498531274603    5.88179360499962
C         5.36869156099265    4.58955427469484    5.81281018942682
H         5.07397241826792    4.64773829170340    4.77370748302752
C         5.21829519975022    3.36489698056873    6.48598482906660
C         5.59385534426062    3.27104121956694    7.86777584708869
C         6.11100614259650    4.43665411142488    8.47428845605240
H         6.40066649778350    4.38714068945328    9.51126020361335
C         4.67419728328304    2.24743007416322    5.81250837356827
H         4.35016780751233    2.43603253455925    4.79056117958826
C         3.86620253514783   -0.00544622896262    5.56722145655676
H         2.81721981838040   -0.02931424379431    5.90367934153537
C         3.87797240650726    0.09870132387317    4.04094044447744
H         4.90959919050034    0.13320501775468    3.68347164169332
H         3.36601663995192    1.00386445357296    3.71146744525072
C         3.15275138957627   -1.10696391916442    3.44597044415919
H         2.10572779056941   -1.08463009804910    3.75660496543096
H         3.17863339180203   -1.04565570665715    2.35662710954433
C         3.78805777261411   -2.41339521780873    3.90449335478172
H         4.81594559216764   -2.46444202839529    3.53834787072002
H         3.24142234110857   -3.25840483726712    3.48224819639764
C         3.79260401234191   -2.52082418108057    5.42832530214432
H         2.76858989746905   -2.54484479509176    5.80792575766827
H         4.28768886964036   -3.45271589935877    5.70508611360022
C         4.53150325186377   -1.31859206124271    6.01923577132398
H         5.56258182114651   -1.32154778816285    5.63072441252190
C         4.54662136281010   -2.30407454618474    8.21424596645782
H         4.34858830070572   -3.26608724932105    7.74482977894348
C         4.70891242114955   -2.34227191698432    9.61842731510668
C         4.53812334300373   -3.55032805063925   10.31474227826683
H         4.26957523242669   -4.43623270743803    9.75506764321578
C         4.69511474000189   -3.63598354746116   11.67084768677238
H         4.55085525583456   -4.58418132806232   12.16349560188991
C         5.04475687962530   -2.47955479247728   12.39697613127198
C         5.22871776485474   -1.28128997949604   11.74097160654618
H         5.49856004461672   -0.40382072323248   12.30550183667330
C         5.07035208997734   -1.15722588526756   10.34344452350651
C         5.03850171680723   -3.63886538381075   14.48731354682301
H         5.75288158117470   -4.41330424834116   14.16606079252679
H         4.01334653642267   -4.02151832983917   14.36145223749404
C         5.26210221510518   -3.34307653544797   15.89094776163760
C         5.44822026764706   -3.07954370207972   17.04264531974061
H         5.60926486012431   -2.86162260761970   18.05592850055738
N         4.62549201397152   -1.24125646380395    7.47796108636457
N         4.53059685893450    1.06240459402541    6.31648809621184
O         6.77706404178658    6.65574166338943    8.49225143410040
O         5.47423594906355    2.20360061732785    8.56160055058107
O         5.26226733848355   -0.02138320400271    9.78891904862880
O         5.22283124127197   -2.44851335701356   13.74156393560257
Ni        4.97606815196067    0.50307169282772    8.03964975780393

