47
CSD_code = EYEMOK | q = 0 | S = 0 | Stoichiometry = C26H16MnNO3 | MND = 8
Mn        4.00494284000851    3.21848180421451    2.56718408027430
C         4.77813963121201    4.36295356137020    3.70090609455556
O         5.35318242089481    5.06554940637905    4.40570350302596
C         3.24424440428278    4.46195703998348    1.52143862881935
O         2.77763283138565    5.23259975486918    0.81251925061635
C         2.58364787458899    2.93883850250592    3.61583812571837
O         1.67374172225990    2.67648335076546    4.26520158177303
C         5.38876446478803    2.55388399443354    0.92124945217547
C         5.98851524955540    2.28826121511313    2.20542723140099
C         5.09163998279773    1.46166600406764    2.98088333184134
C         4.03788218782540    1.04896077578893    2.08050673661806
C         4.16575499777233    1.77357817234541    0.84274993834643
C         3.31283613476480    1.47752535777182   -0.23681546116224
C         2.35324677014176    0.51229896493794   -0.07426648015639
C         2.22040545950598   -0.19015042362567    1.13713654393384
C         3.03816164635175    0.06004582769776    2.20701185347573
C         6.10923266916994    3.25893648469770   -0.06129181986323
C         7.36883467387679    3.70954391001768    0.23595274966847
C         7.95080521128062    3.47058292125259    1.49390801577088
C         7.28795876689889    2.77710564619945    2.47101470990651
C         5.49222209139632    0.67151368042476    4.19991130834942
C         6.04956615699474   -0.66066357272961    3.76108818535953
C         7.22431903051287   -0.74929791859953    3.05734251952704
C         7.73232708213751   -1.98369100035938    2.62937401380038
C         7.06383471545959   -3.14282789055416    2.90653140164074
C         5.85289006003456   -3.10300147492204    3.62363466027225
C         5.11150068499990   -4.26019713911346    3.94342839738073
C         3.94112726381511   -4.13904338654719    4.64010019525527
C         3.51536177547211   -2.85127769211331    5.01081083429480
N         4.17223223263225   -1.76137545059360    4.73370642900154
C         5.33385215948213   -1.85040398884997    4.05271593205519
H         3.42834461987145    1.99732775652935   -1.17797450093319
H         1.69490308380871    0.26842500611284   -0.89465798742898
H         1.46275863404612   -0.95612403063149    1.21230471977657
H         2.95204739147135   -0.50015296753345    3.12674714431394
H         5.67310001639183    3.42485918203194   -1.03667007776709
H         7.93742567199285    4.24509861960390   -0.50924060665508
H         8.95117752992258    3.83194496160162    1.68085649283436
H         7.75491960288064    2.58589126197037    3.42768979251799
H         4.63019455023929    0.48987947796616    4.84310416172769
H         6.24470119718664    1.22238590702499    4.76948651068288
H         7.77805324046052    0.14878781688335    2.82287528857903
H         8.66181919218316   -2.00735311533655    2.07964317576430
H         7.44916625768499   -4.09938533030440    2.58348649169310
H         5.48316080587449   -5.22662557702432    3.63095631752697
H         3.34789422740677   -5.00085812686384    4.90376312635281
H         2.58983078627600   -2.71633727886182    5.55712800733879

