44
CSD_code = EYENIF | q = 0 | S = 0 | Stoichiometry = C24H15MnO4 | MND = 8
Mn        0.34281996206405    7.88009962667453    3.13450508098399
C        -1.16744024955821    8.62985600898444    3.71778102089255
O        -2.13508671432933    9.15562895896528    4.05263041631369
C        -0.42610446947013    6.30411379790931    2.78324373155125
O        -0.88196144190752    5.29544323060587    2.48509259869033
C         0.91626841221656    7.46801287090309    4.77900708670612
O         1.35269350369334    7.22309593188623    5.81005968812298
C         0.70121968876393    9.52320707995251    1.83107838495947
C         1.75650120653491    9.42952384304536    2.77020400246461
C         2.49245648905561    8.22845647154389    2.47984358442119
C         3.72522668742131    7.73485550519721    2.95190635736303
C         4.22741303502232    6.58822847772112    2.39664215382367
C         3.53803678287484    5.89729962600756    1.38232102050995
C         2.34219498389392    6.34818757486534    0.89103140241455
C         1.80297339447565    7.53781918564216    1.42215446700017
C         0.65516832621675    8.33609314525712    1.04911340557324
C        -0.16562340318065    8.16290990191903   -0.16418081447953
C        -1.56786566600224    8.05878053959288   -0.05380235161929
C        -2.34449446338957    7.89435873066681   -1.16203463586426
C        -1.76373679850135    7.81479489418324   -2.44507927468740
C        -2.54668564184473    7.63546286906259   -3.60386783581753
C        -1.96407104148776    7.56497153195938   -4.83782748412817
C        -0.57095778469631    7.67093343897363   -4.96606453335210
C         0.21715990655457    7.84807012957776   -3.86324815841870
C        -0.35351025466413    7.91949386503187   -2.57404977549040
C         0.43272204910203    8.10910437979988   -1.40776640321442
C         1.91246593819011    8.29082736588366   -1.55526595568616
O         2.66585782930433    7.39856150923305   -1.85442122778838
C         2.37205796794596    9.71574298913943   -1.35692190945901
H         0.09074823825517   10.40270043094740    1.65464252538618
H         2.12764157648701   10.24941338520681    3.37188211374763
H         4.26045515082154    8.26853567716136    3.72504114812911
H         5.17825563791172    6.20337699800734    2.73378349965951
H         3.97612866497853    4.99948759741642    0.97432857815115
H         1.82869109618163    5.82459421835790    0.09799038469141
H        -2.01063210722080    8.09794951708208    0.93452280539875
H        -3.41764060164218    7.81402906427980   -1.06993219747197
H        -3.61859631165296    7.55519918386355   -3.49399586917833
H        -2.56969571887616    7.42695293469703   -5.72118077247986
H        -0.12266431108508    7.61148662594664   -5.94671927723818
H         1.28916838761559    7.91942596179741   -3.96984298381847
H         3.45829865989414    9.76430206355257   -1.36424423390425
H         1.97755960206529   10.31850323883500   -2.17476998231859
H         1.98528380196824   10.12480962266442   -0.42678978053913

