39
CSD_code = EYEPON | q = 0 | S = 0 | Stoichiometry = C17H15ClMoN2O3 | MND = 8
Mo        2.48985996352878    8.05391933291878    0.17522127704078
Cl        4.46760464829353    8.12952886055692    1.63707784102862
O         6.38482969213925    9.37338561577215   -5.33364172605190
O         0.97938663173076    9.48715338771280    2.46166708029091
O         3.13381798311640   10.97374474901885   -0.61967048995460
N         3.69521367028517    6.99623145770158   -1.11875727696341
N         2.43925669867479    6.09135838614843    0.91162648396484
C         4.38032091421036    7.56283132339422   -2.19540095803083
C         5.17864808539584    8.68689580412854   -1.98434523601628
C         5.84922039295222    9.26975449020769   -3.03579096272003
C         5.72237709185345    8.75313218799393   -4.32536759613636
C         4.93265489575416    7.62935454724303   -4.53769094467083
C         4.27970759989186    7.02872793086574   -3.47744427754883
C         3.85874025934998    5.72769093424176   -0.89241798940568
C         3.20808143234816    5.19406912480716    0.25003029455517
C         3.38407370754193    3.87786630161980    0.70609803990967
C         2.78671229597864    3.49176859895161    1.88060066131556
C         2.03016343177309    4.43479528898900    2.58135031722098
C         1.88777854365484    5.70281729874494    2.06081609715084
C         1.54353661379454    8.94957379639976    1.62100287304546
C         2.92072587021894    9.88241893995205   -0.34191060003817
C         0.20051950093059    7.61197713006960   -0.09164941793141
C         0.88088148646411    7.51813465951528   -1.31592477237125
C         1.42793948768566    8.72188769390712   -1.80668316895246
H         6.21919956773587    8.92184020851605   -6.17017135763231
H         5.29229781771415    9.06887628495887   -0.97965180293747
H         6.47768673115473   10.13187008550132   -2.88398112817363
H         4.83020199448266    7.22068298515352   -5.53445280638207
H         3.65660847084695    6.16200144148356   -3.65165084335821
H         4.51916490048389    5.11059844126839   -1.49838661479419
H         4.00015064694469    3.20070591591187    0.13471938140725
H         2.90594553172177    2.48954297895076    2.26227028724310
H         1.55969610391319    4.17878483227778    3.51683891248731
H         1.30331170567747    6.44983759319603    2.58226113664985
H        -0.23741409048324    6.70790603862956    0.32043517709404
H        -0.39945359772936    8.50084993426201    0.07964735221650
H         0.99913029528523    6.56949232556463   -1.84046952881066
H         0.83159724240484    9.62088890641552   -1.67373020421804
H         1.95452578227992    8.69410418705070   -2.75577350952016

