54
CSD_code = EYEQIK | q = 0 | S = 0 | Stoichiometry = C18H30AuClNO2P | MND = 2
Au        7.92719629379359    2.52599146581930    3.82821581874049
P        10.11705199865967    1.91454254943204    3.59275476355513
C        10.84451214663319    2.73649792887527    2.02721058436971
C         9.79562465408980    2.64466606218428    0.91043784744588
H        10.07829648333682    3.31863325205298    0.10271012095050
H         8.81760670435245    2.95724572373352    1.27535009253518
H         9.70672346952295    1.65276268112057    0.48422037714739
C        10.99400665334509    4.23151733303477    2.32555566275223
H        11.16122434983246    4.76930859918904    1.39292537283188
H        11.84145206405797    4.43868779819671    2.97160401936761
H        10.08221132693212    4.62525617870965    2.77308238162991
C        12.17904718071853    2.18431561182427    1.52936629245031
H        12.53407373945531    2.81245584836726    0.71241827524684
H        12.08096130841344    1.17369019681356    1.14260608202758
H        12.93709991984903    2.18982688960906    2.30696309882726
C        11.10867015069417    2.49143615305126    5.12327569673521
C        10.70182451244560    1.59018180682217    6.29336250218039
H        11.04202758535189    2.03574246695639    7.22757143059722
H        11.15174116563122    0.60461711507521    6.22634678239155
H         9.61767792910343    1.49754641415980    6.34630887975406
C        12.63035711546057    2.48789175486761    4.99000488879709
H        13.06631382738660    2.72998693925968    5.95924782021556
H        12.97716702775288    3.23561560586223    4.28215381180632
H        13.00986617994818    1.51640369157674    4.68768158588559
C        10.62607155807508    3.89981784849675    5.49781180656806
H        10.95201667626060    4.13058345723846    6.51122186741304
H         9.53702909810617    3.95152945301083    5.47736373237748
H        11.02081360647890    4.67316889304489    4.84997299050511
C        10.26023991248482    0.01375112929599    3.43256539164081
C         9.28816590647834   -0.61916593698837    4.43806792140129
H         9.13367039585470   -1.66478923529295    4.17516119592252
H         8.31980305063639   -0.11929537493040    4.40232536604583
H         9.65245643939891   -0.59580104191248    5.45800568552910
C         9.72756321379694   -0.36740745921543    2.04778222395194
H         9.55833158453768   -1.44308982956099    2.00983722579731
H        10.43154789759084   -0.12585298348709    1.25755031279197
H         8.77468854768248    0.12468314357435    1.85584051522418
C        11.65457888328079   -0.58218974651502    3.61645642948695
H        11.61222969672590   -1.64715485601448    3.38824047610223
H        12.00649291381825   -0.48337620189554    4.63953504538061
H        12.38170629539503   -0.12762372577889    2.95016749778461
C         5.97795835568824    3.13568871560267    4.00729298341756
C         5.48912120218967    4.18168417315962    3.22074716829515
Cl        6.57715964084524    4.93391650850389    2.09752703398959
C         4.19202023333374    4.67361881812491    3.26712342078507
H         3.89268243843011    5.48595508235137    2.62259440729637
C         3.29619861683478    4.10896592098709    4.14925748944084
H         2.27808474034772    4.45745266603961    4.22312365066173
N         2.81804263949583    2.46735930642270    5.88424755425277
O         1.68277179942069    2.90289297725336    5.92778835230710
O         3.22128004208980    1.55496913159780    6.58096970842804
C         3.73240562598709    3.06500502861939    4.95834237844043
C         5.03985556518538    2.59470333394200    4.88338605741620
H         5.31807963673620    1.78108073748458    5.53741992309502

