49
CSD_code = EYEQEG | q = 0 | S = 0 | Stoichiometry = C16H29AuBrPS | MND = 2
Au        0.63251083581823    0.28952873813383    5.86167255840290
P         0.63362448498276    1.20431724875582    3.77758234828223
C         1.62370884489620    0.06759572921380    2.60174609895771
C         2.87504341325717   -0.41329404532209    3.34890767936647
H         3.32161456023129   -1.23824114896747    2.79561711160582
H         2.60968397807538   -0.78486773149163    4.33841390370502
H         3.63482452001984    0.35142085440839    3.45648717036126
C         0.78412981950725   -1.19159777179622    2.36468910546820
H         1.41067147722213   -1.96036171227673    1.91396500573018
H        -0.04269702374221   -1.01266076527164    1.68442257477758
H         0.41069781915382   -1.58907748726008    3.30765103168839
C         2.02452991365968    0.67028714354909    1.25621376048084
H         2.47536898617440   -0.11099106320011    0.64440152947283
H         2.76189637078671    1.46063399502411    1.36863715560918
H         1.16851680845001    1.06377377158886    0.71584260721213
C        -1.16212105138192    1.35422524990230    3.13792147277580
C        -1.91725184112541    0.08199584277206    3.54696634788174
H        -2.98777214395002    0.25239700352485    3.43876892521272
H        -1.72152636204402   -0.16287849235789    4.59105513964415
H        -1.66554405269667   -0.77939992652056    2.94073651964255
C        -1.33387931603700    1.59571037396126    1.63930219479626
H        -2.38960963843620    1.77118243990824    1.43201327883892
H        -1.02650088374309    0.73436068095457    1.05289041516402
H        -0.77910525660806    2.46623080019634    1.30162039834739
C        -1.82863195160528    2.49558571654853    3.91259941505768
H        -2.90719573693796    2.45066287472608    3.76398073227846
H        -1.49847427507897    3.47103498447085    3.56942879611597
H        -1.63692478383754    2.39681509188735    4.98049751818501
C         1.43514962383804    2.94093904821774    3.80625048669995
C         1.21650319874290    3.81490825788791    2.57270613944549
H         1.81581117630966    4.71978156548181    2.67394993474218
H         0.17920182439014    4.12181014178969    2.47167406771054
H         1.52343925658603    3.31236426340653    1.66032070600002
C         2.93837681918957    2.74249884479216    4.02401840239046
H         3.39376125151991    3.69616864433583    4.28982898870085
H         3.43873713614618    2.38669843273619    3.12879471505228
H         3.11662479072443    2.04975166712213    4.84588703096911
C         0.92895809229982    3.67086583294819    5.05845885612464
H         1.58252628286982    4.51658645236936    5.26808378322608
H         0.95187510859682    3.00874143350556    5.92457835371299
H        -0.07541891020941    4.06165651946672    4.94837935088102
C         0.63245693671344   -0.66840520821597    7.65045059404769
S         0.63565260078822    0.06202126890170    9.23462051778554
C         0.63478079700330   -1.45900542818003   10.05218047190634
H         0.63668858202899   -1.48075677346260   11.12323206873536
C         0.63100248308910   -2.49084643858754    9.17754765526761
H         0.62931752343680   -3.53208174801162    9.44714019670898
C         0.62940906618985   -2.01850986735274    7.84313308379755
Br        0.62465884473690   -3.23247530420188    6.36803380103512

