42
CSD_code = EYEQAA | q = 0 | S = 0 | Stoichiometry = C18H17ClMoN2O3 | MND = 8
Mo        4.21658620948527    3.60910852752359    7.23039512257815
Cl        3.84248446588269    3.48892153851444    9.66566072154980
O         7.22197933336289    9.76850454495853    8.05989500670208
O         1.43334744334088    2.28432822130759    6.99147052115873
O         2.49075407707228    6.17518057305429    7.22168053203202
N         6.06576316756803    4.35918933790007    7.74590891203616
N         5.35287255186917    1.90737299794915    7.64343005068033
C         6.37617138799679    5.71789496884054    7.83903065920909
C         5.52681544625336    6.56298540187551    8.54904113716687
C         5.80431627939720    7.91071251401052    8.64117618964314
C         6.92622659389578    8.44518043816161    8.01312457388015
C         7.78571394184237    7.60174626115755    7.31531938835684
C         7.52135718490022    6.24959817352515    7.24539751161495
C         6.98519213723534    3.50341854081374    8.07995461146229
C         6.62102904219203    2.13342252222889    8.06476566033681
C         7.46111545625134    1.09760598501296    8.50580473329309
C         6.97780003162132   -0.18656172137180    8.54104950294318
C         5.65590271437732   -0.40840611117064    8.14304738756751
C         4.89680675837507    0.65599414132164    7.70934468842031
C         2.46885225815871    2.76727582981799    7.08242080130732
C         3.15542315344814    5.24087524089139    7.24119903686791
C         4.05677578384604    2.57419696436096    5.14268774777611
C         5.04016696537102    3.58453558572257    5.11215603178087
C         4.53918099593834    4.89339927538890    5.30036333818006
C         6.48766052675479    3.29201785979256    4.83252638998601
H         6.54988794042189   10.23818478596784    8.56899379216259
H         4.67252559098971    6.14310345582558    9.06071345087930
H         5.14463359272685    8.55647207980480    9.20427911923122
H         8.65628401634791    8.02363880170943    6.83922877132858
H         8.19430374902388    5.60355540263050    6.69824872556801
H         7.96548336911780    3.81493501341965    8.43527250916347
H         8.46481637160736    1.33425138565542    8.82404308020607
H         7.59482169944743   -1.00499666596433    8.87832698611617
H         5.23059277693517   -1.39848933843672    8.17287322898470
H         3.87146261260845    0.50810215405803    7.39588235430431
H         3.10512245770151    2.78425096600242    4.66273390900407
H         4.39003673311567    1.54960140857707    4.99976206495382
H         5.25346746474934    5.71253375376232    5.28786601523765
H         3.60222319120779    5.14093212786549    4.80794649671067
H         6.61350296830155    3.17913131164598    3.75285184658911
H         7.12934181535281    4.10907501238397    5.15800492135311
H         6.81869974391946    2.36462073350375    5.30282247168143

