37
CSD_code = EYESEH | q = 0 | S = 0 | Stoichiometry = C18H14CdI2N2 | MND = 4
Cd       -1.57628987882534    5.97678760239443    3.91067036064155
I        -4.20355242278233    5.73163427539988    4.44001368258056
I         0.09746448912714    8.03049419041904    3.42945658850392
N        -0.50248163877874    4.74627734585166    5.70835538146699
C         0.26302357255620    5.43049716496726    6.52575000798861
H         0.63681769904778    6.38257755878336    6.16309025680446
C         0.61531612707230    4.99130655613630    7.81060831459871
H         1.24861948283353    5.60870100487795    8.42743505861597
C         0.13212942818751    3.78987507341587    8.25336183757328
H         0.36559154355721    3.41931673164293    9.24123769701362
C        -0.68676468919496    3.02054726590166    7.40286403635165
C        -1.22215188975949    1.77121155936180    7.77715914940299
H        -0.99757538612181    1.38770944136213    8.76165597466294
C        -2.00931810452021    1.06671331347652    6.91021910288873
H        -2.42284105179643    0.11335492041726    7.20181162629785
C        -2.28675267490147    1.57464647374830    5.63093287060858
H        -2.90859381170047    1.00405426747148    4.95807514905405
C        -1.78190228856458    2.78192802412833    5.23435848450222
H        -1.99395612834988    3.17001780893874    4.24531267015695
C        -0.98003732118242    3.54110267232923    6.11164067292601
N        -0.82101929080735    4.66050326152539    1.96395930264827
C         0.21620803286587    3.87031243513361    2.11189451444690
H         0.31321092882721    3.37413234302566    3.07247189307880
C         1.17523076391888    3.64549692371661    1.11419042054861
H         2.00128632587064    2.98035493053475    1.31021221125410
C         1.04624863960781    4.29509027369556   -0.08381424326854
H         1.77264336269559    4.16742474162734   -0.87343534730762
C        -0.05318779686060    5.15137079936819   -0.28717138035996
C        -0.25613066208439    5.86817717060520   -1.48406454803825
H         0.46364783387470    5.75543324320394   -2.28147523436414
C        -1.33768603601179    6.69135274518245   -1.62347389328731
H        -1.48613773173500    7.24588290210738   -2.53744236290735
C        -2.26924095330440    6.82267213611066   -0.58068448432993
H        -3.12283757537282    7.47023053693143   -0.71183730871314
C        -2.10347638470041    6.14155517363593    0.59333158110884
H        -2.83471945536178    6.23184613308447    1.39037844423380
C        -0.98588505734266    5.30001099946535    0.77695151260641

