31
CSD_code = EYESAD | q = 0 | S = 0 | Stoichiometry = C12H14Br2N2Zn | MND = 4
Zn        3.85654361976675    6.22472358766497    8.56940578884378
Br        2.66718526916774    4.70721955105791    9.94493952201180
Br        3.22485202655338    8.30164036784726    7.62034468297193
N         5.64846761370880    6.72744172383490    9.74122228275004
C         6.65565184391374    7.45997098867082    9.25738383462357
C         6.73641226937747    7.66935179953608    7.78506967617258
H         6.39337543279831    6.78860354352781    7.24645300994832
H         7.75400132953216    7.90346795977070    7.48432526457769
H         6.09501290109822    8.50454834781577    7.50021083356311
C         7.60388057743297    8.02588863069161   10.10615216125442
H         8.39892696555236    8.62207879591728    9.68640739414114
C         7.51445503717972    7.82303202771587   11.46982506866349
H         8.23963177135274    8.25991225086113   12.13960696138076
C         6.47715105926015    7.04144875736498   11.95645082047200
H         6.36678507890719    6.84174877666334   13.00950478860061
C         5.57037483734095    6.52079113573679   11.05533381553551
H         4.74911973347290    5.90565721848431   11.39643634649266
N         4.45878519759056    5.00297239744643    6.84257656531774
C         5.01338512700987    3.79307172783695    6.95967656047435
C         5.53440510682346    3.37792310695362    8.29161192902194
H         5.95587746719073    4.22589825767681    8.82726490515560
H         6.29074467225396    2.60493625921523    8.18580488687870
H         4.71780063498318    2.97707967048681    8.89374992703588
C         5.09531860787038    2.93259993148681    5.86750352528157
H         5.53843075930095    1.95747278625018    5.99600075814597
C         4.60732961938675    3.33273229549126    4.63846816437556
H         4.66060197417780    2.67432061706375    3.78464865074601
C         4.05453696884107    4.59980529482723    4.52603437924690
H         3.66954811244213    4.96675511980831    3.58896351770688
C         3.99965674006552    5.39335232867806    5.65411161025429
H         3.57735164565855    6.38755474360949    5.60571236834142

