31
CSD_code = EYESOR | q = 0 | S = 0 | Stoichiometry = C12H14CdI2N2 | MND = 4
Cd        8.00315911644919    5.85820590748361    7.25144621472926
I         9.50869173552895    3.92457020657197    6.14004518456302
I         6.45652089865330    7.85191074406264    6.31723606821996
N         6.41949231495382    4.63698802095462    8.69759712853066
C         5.61314417855151    5.24566231644572    9.57029526030147
C         4.47162656820946    4.61709372272447   10.06401350025556
H         3.83750614559187    5.13976533985915   10.76324054742924
C         4.16471436361385    3.33559843354195    9.64853854675365
H         3.28281048805176    2.83415685361235   10.01783713239425
C         5.01526937542207    2.70613359203720    8.75120458632060
H         4.82309458344514    1.70432159737729    8.40317433202256
C         6.12482982163216    3.39811070591930    8.30435782585277
H         6.81671928460606    2.93780690094604    7.60746694115957
N         9.62984671843903    6.99000284005300    8.72046874065719
C        10.45961844938433    6.33168058466340    9.53331773493947
C        11.60613378153587    6.93669508308636   10.04431067983982
H        12.25918925517148    6.37481547620673   10.69394390743832
C        11.89389905004491    8.24595167923486    9.70917032987173
H        12.77942686688481    8.72977865977826   10.09301784991472
C        11.01962433675216    8.92583301395348    8.87367680717149
H        11.19650849460841    9.95029464037644    8.58933464427262
C         9.90609217851357    8.25493658321436    8.40491915156462
H         9.19585143537591    8.75427779780828    7.75491541087143
C         5.96023466137330    6.63431455091422    9.99797635686667
H         5.40742476348679    7.35082006413472    9.38808168947915
H         7.02643106076917    6.82841040304933    9.87099238184225
H         5.68424948187679    6.79534952182865   11.03747437133217
C        10.13258328413037    4.91414423478812    9.87263017684289
H        10.65810360207661    4.24665208551120    9.18753397844615
H         9.06193223573876    4.72579021594239    9.77821728325043
H        10.45407146912676    4.67772822392035   10.88416523686801

