27
CSD_code = EYEWAG | q = 0 | S = 0 | Stoichiometry = C12H10Cl2F2Ti | MND = 12
Ti       -5.74879983269386    2.63970148566279    5.09258532181612
F        -1.84290802740920    2.63935313473357    3.13033214490727
F        -3.81835939185766    2.63925738884497    2.21348841162980
Cl       -2.70519610727764    2.64022682992259    5.92178701971067
Cl       -6.55447728309445    2.64240886140140    3.03704524580241
C        -3.76707287017094    2.63914368990410    4.54995592511670
C        -3.16055505917327    2.63889391559555    3.37815266008359
C        -5.99995289410119    0.29048242159303    4.71662838454563
H        -5.92646486855232   -0.18989903754092    3.74942471342972
C        -7.18266376328312    0.77287726026346    5.31267521219812
H        -8.17483819744995    0.71330001006068    4.88373028768043
C        -6.86430554867067    1.21938183895762    6.61131273506009
H        -7.58201054426966    1.47723863285872    7.37789514456998
C        -5.47819002810352    1.04252745796501    6.80851866901879
H        -4.94484106368635    1.18766409359652    7.73850587486794
C        -4.94750389068489    0.45257348818376    5.64037345141138
H        -3.94505241528565    0.06113202993869    5.52646674727211
C        -6.00023480418782    4.98883907451025    4.71651034005443
H        -5.92684137003922    5.46946020467804    3.74941620937242
C        -7.18287991008608    4.50634155818937    5.31259360881366
C        -6.86445321400998    4.05994789970362    6.61127072444506
H        -8.17510107315699    4.56601074448983    4.88377094102009
H        -7.58211550287366    3.80208741183813    7.37789216134239
C        -5.47836784060694    4.23697242432326    6.80847242204229
C        -4.94779665817499    4.82704963048090    5.64034554593542
H        -4.94499351117839    4.09191652341810    7.73846114014935
H        -3.94542432992207    5.21871102642676    5.52648895770370

