115
CSD_code = EYEWUA | q = 0 | S = 0 | Stoichiometry = C36H69LaN2OP2Si4 | MND = 6
La        3.47925587341391    6.02524764969279    6.80189590733311
P         1.23320140527415    4.57700667351533    8.01259793534975
C         1.20312765283203    2.71070671385441    7.79358527062169
H         2.19643546109988    2.30072923664056    7.98680182835177
Si       -0.04309172725070    2.08236059381279    9.11777040538272
C        -1.81733486034171    2.35755460619956    8.47056668298750
H        -1.95362091240435    3.38000796661688    8.13467276905480
H        -2.54223897958822    2.16880421259536    9.25569095428895
H        -2.05463931603969    1.70030580272831    7.64171139559645
C         0.25590832666388    0.22111013718568    9.44515208827869
H        -0.44651519909375   -0.15002125357741   10.18416589251267
H         1.25533334181445    0.04174501355963    9.82967194129350
H         0.13590850370519   -0.37800477078004    8.55016442377827
C         0.01719396498655    2.93581219331296   10.82360625578517
H        -0.10305781936175    4.01065540695133   10.73811272045833
H         0.95114235540243    2.75462292489371   11.34383149139676
H        -0.78725818078558    2.56086674900588   11.45002366823945
Si        0.77719726494434    2.24724867467303    5.98835964277700
C        -0.61630357752703    3.34296899843765    5.27364526133422
H        -0.52607505149156    3.47365540647866    4.19897558672897
H        -0.60917395722275    4.32431959534503    5.73833114513446
H        -1.58943389229425    2.90396685766310    5.46442613669667
C         2.36480544118633    2.42731669575093    4.93185011817153
H         2.89298234713224    3.35367124324101    5.15350727216469
H         2.14653091029078    2.40883886650263    3.86808760266736
H         3.04435633388836    1.60406093340759    5.13320026096919
C         0.25406098041427    0.42425871665899    5.77889295545745
H         0.12129208942521    0.18927334208460    4.72751851292089
H        -0.68177226323385    0.21126172976112    6.28214351689114
H         1.00329761415407   -0.25488088700775    6.17175480268246
C         2.21829757612660    4.77281691271192    9.53449953872587
C         3.05521584999778    3.78445017487289   10.07113276801412
H         3.16493269465858    2.83516267325283    9.56750896016623
C         3.75592542699311    3.98327403607743   11.24209956582737
H         4.39690313707182    3.19898676734946   11.62129387063420
C         3.63660409860417    5.17483674902677   11.93870743743529
H         4.17373606594221    5.32958122230300   12.86239464904641
C         2.81360399882896    6.16630443571824   11.43122485703133
H         2.70192006754749    7.09530369744662   11.97559754910738
C         2.11897873257947    5.99016126306516   10.24657040081341
C         1.24052271988854    7.08905021744275    9.72522546724292
H         0.34533588819371    6.63368759932835    9.28386371547866
H         0.92630318459688    7.74959627908372   10.55115103814415
N         1.89650782152569    7.88196240974035    8.67013331697274
C         2.93100835089619    8.72797750417941    9.25855772567000
H         2.50601004771527    9.42957156738150    9.99304282540487
H         3.41453883721009    9.30430615511707    8.47074041901094
H         3.67659768636021    8.11071957708980    9.75651327166184
C         0.90135356616323    8.73576580649819    8.03324705661905
H         0.43599716074878    9.42500331258305    8.75414824032272
H         0.11920577079025    8.11759935978105    7.59470661494301
H         1.37460650529844    9.32864594923281    7.25152900675214
P         5.04574758336959    7.96258559445022    5.40188752962208
C         6.34583093043489    8.44617377820304    6.65206520860212
H         5.91117322169542    9.17861273328003    7.33293644797355
Si        7.66934862780899    9.31319947438037    5.57328212416655
C         8.22115515277800    8.18586018459828    4.13119373263822
H         8.80208603253565    7.33811921594961    4.47533781644341
H         8.83581119572945    8.74000392653589    3.42856189393737
H         7.36209482418659    7.80457191472432    3.58723576802680
C         9.22982065213237    9.82723193828036    6.55067077117513
H         9.77263579535693    8.96726176088233    6.92701789794388
H         8.98541871104249   10.46113400050685    7.39679079860132
H         9.90559827868133   10.38542821707124    5.91077016807476
C         6.95732870520950   10.90174253714322    4.78488018244281
H         6.01889766223255   10.70351655617167    4.27665801782478
H         7.64924629484251   11.31186021876842    4.05572622519565
H         6.77205146513468   11.67242570313426    5.52618497852452
Si        6.88314430451837    6.98923275915416    7.81095293335872
C         5.43508783847365    5.92283065700075    8.37325398701639
H         5.08120720790267    6.24871370337768    9.35705749613399
H         5.74550291023143    4.87868012464495    8.48781894152753
C         8.21272367438700    5.92178291353976    6.93757019459379
H         8.47113480182853    5.06225750584335    7.54803599842143
H         9.12283055137494    6.48490803540776    6.76446354216263
H         7.85528357136308    5.56223609165384    5.98032042914957
C         7.73921408664384    7.83359439579695    9.30625788055653
H         8.13694454764713    7.08837814445984    9.98688944471837
H         7.03081191986858    8.43697739571460    9.86521363392760
H         8.55664262270199    8.47880535523941    9.00792530615507
C         3.82110511847668    9.28566995950925    5.44125858538224
C         3.92401600554005   10.45972433319797    6.20363141701576
H         4.77331542727258   10.60734802363273    6.85300866247026
C         2.97739154758627   11.46005478516166    6.13502968898490
H         3.09094672819850   12.34488627004257    6.74614316269972
C         1.89451245913260   11.34539385222781    5.27846630145386
H         1.15608538249842   12.12993651110052    5.21286238782796
C         1.78704618754851   10.21057598086060    4.48870405905364
H         0.96197183088125   10.12828942586546    3.79262314544988
C         2.71718370979764    9.18897816366254    4.55892853509536
C         2.56632950735236    7.99415720504803    3.66005107624567
H         3.56049353218276    7.69353838039283    3.30701406161973
H         1.95684986698170    8.27108071657969    2.78259426509400
N         1.95734656918466    6.82796418084638    4.33016374346585
C         1.95826069726904    5.70702840153927    3.39304275534070
H         1.42832487442544    5.96295107644293    2.46206111346957
H         1.46315547495673    4.85117767334115    3.84925102677044
H         2.98431908147330    5.43768482478019    3.14145211460176
C         0.57064051790657    7.13823902182095    4.67709499871960
H        -0.04165720038586    7.29494613611751    3.77597744145115
H         0.54004347328607    8.04523914853936    5.27645843270051
H         0.14447195569690    6.31592734619578    5.25252665075709
O         5.22769038543827    4.17228875420852    5.35949778554208
C         5.83068202125693    4.45956078066144    4.09061741238348
H         6.15006108217307    5.50635186467055    4.08092651247065
H         5.06985591569566    4.31046269366217    3.31362364975148
C         6.98799097999719    3.47824011723892    3.90762262827734
H         7.91499526251014    3.90338477520321    4.29231684826014
H         7.13238074484630    3.20621644518868    2.86485586194007
C         6.54727538891760    2.30533767391340    4.77952976267842
H         5.81834134085595    1.69064042223630    4.24993371567192
H         7.37384184523553    1.67932871403934    5.10550983149568
C         5.88122098473961    3.03919789402468    5.93728867055311
H         5.12745142032021    2.44507721822073    6.45812663091796
H         6.63086739193133    3.38386269522527    6.65974496690192

