81
CSD_code = EYEXAH | q = 0 | S = 0 | Stoichiometry = C32H45OSi2Y | MND = 12
Y         3.72959346726142   12.05810301140649    4.40687232202678
Si        2.55280107371044   15.09314807122579    5.56999417935227
Si        5.75273765010585   14.63114514278191    5.62021150978797
C         5.30342042567864    9.18992785503141    4.54785830869195
H         4.79826304661972    8.84767149425048    3.65405739698287
C         6.66324386008270    8.99643467737320    4.67786875412154
H         7.20857909907274    8.51364033513249    3.87748357460083
C         7.35179166023117    9.38620630192957    5.82818152269611
H         8.41584850276653    9.21345733595376    5.89543412628800
C         6.67657763321353    9.97396541654552    6.87824281039893
H         7.20336612765138   10.25670174871296    7.77894395911026
C         5.30521728542062   10.17798424139880    6.77797679177353
C         4.35842605402041   10.71011160233378    7.70976314533245
C         4.55804023116132   11.23907239630724    8.97900187551709
H         5.55572039965322   11.29371545437846    9.39128329099838
C         3.47317439763946   11.68757689357458    9.70054251119677
H         3.60769747691132   12.10101364847696   10.68927115168868
C         2.19298058968770   11.60470730643924    9.15369734669227
H         1.35047835482346   11.95453541234855    9.73402475132741
C         1.97226419796406   11.09254889667279    7.89362908797092
H         0.96077615034466   11.06564023646166    7.52465203284780
C         3.05239190826803   10.63063363283582    7.12449012621800
C         3.16572369101255   10.09732987191022    5.78023817017153
C         4.58552308155836    9.79566484813664    5.59975269193911
C         2.09162486853872    9.39191552802924    4.92682761549929
C         2.20061084262853    9.89233201663122    3.49150393006423
C         1.89275424467690   11.27100005383723    3.11368517227910
H         1.04911334554090   11.81568850213945    3.54866811579510
C         2.10874118941070   11.33680999585503    1.69485303715433
H         1.87088166906847   12.19131515619455    1.07702818144586
C         2.56803902681334   10.11720428526280    1.25819457350724
H         2.82679406838338    9.85717052362955    0.24466781864613
C         2.62848775665257    9.23342680100465    2.35905814810532
H         2.94131079762875    8.20474891026775    2.29474221603588
C         2.30056082079810    7.87064747761453    5.02005921285495
H         1.56800003211685    7.35672445150542    4.40136246561543
H         2.17295435280101    7.55034856282424    6.05242831400105
H         3.29488902137644    7.57712222759926    4.70067274497358
C         0.65668620432043    9.66568388564061    5.40535830782978
H         0.44219482975416   10.73111119655720    5.45435063698917
H         0.48689830144631    9.22071035006079    6.38272346048598
H        -0.03785762664163    9.21289145742695    4.69922964680237
O         5.28099754553209   12.09282841246477    2.24238370196729
C         5.24770291793265   13.14190246270167    1.26313640986936
H         6.09446961385119   13.81926090292447    1.44029304437870
H         4.31066667865087   13.69297377082920    1.37859623991964
C         5.38288191730945   12.45413697787777   -0.08846610185666
H         5.74628081196581   13.12519450864376   -0.86239669149795
H         4.42306181336962   12.03526454942478   -0.39015328172472
C         6.36211506009076   11.33562624390723    0.25391502612463
H         6.32408705384218   10.50599482291263   -0.44703356281947
H         7.38148968280635   11.72206033997044    0.29076052286090
C         5.88654820035527   10.92623933691557    1.64546737748186
H         5.11744654789622   10.14848406026421    1.58025595211755
H         6.69899234275355   10.58735976715446    2.29465844210570
C         4.01230086303574   13.90798212897295    5.79080849109001
H         3.94173556845125   13.50403682419134    6.80968683808987
C         2.67914687360570   16.78967795441040    6.43880178507184
H         2.84488307135687   16.66582586288476    7.50357752596328
H         1.77528314332346   17.37749306660577    6.31240257767045
H         3.50685070650805   17.36849446163689    6.04320997797983
C         2.25354266251262   15.42901330327987    3.69910617260213
H         3.03358994869034   16.05801752110318    3.28402516924115
H         1.30943034128805   15.94125039241235    3.54062378976495
H         2.22407188579310   14.50253205236755    3.12001799912472
C         0.99061324431316   14.20085798096008    6.23248011434086
H         0.84683821803266   13.23994467986239    5.73933621046021
H         0.09122057575509   14.78890888385124    6.08061000017878
H         1.08134913016732   14.00895278551074    7.29639292635060
C         6.34718131847427   15.60160485629820    7.15518961603741
H         5.70744206199736   16.45608682155269    7.34575865657531
H         7.36235539190120   15.96766402849044    7.03702286094441
H         6.32462799846588   14.97359409242383    8.03971526517243
C         5.89724847785970   15.79551878747258    4.10719812791071
H         5.44465802054270   15.36079204408323    3.22149261215071
H         6.93473384976848   16.01481790576815    3.87568945305197
H         5.40051900492108   16.73944628194759    4.30112759326781
C         6.98929004997058   13.18541520898063    5.35294460141369
H         6.98286678357848   12.51464660073796    6.20778759922576
H         8.00821028988029   13.54184801987420    5.23185439553726
H         6.74445022356902   12.59296408382426    4.46753752617032

