84
CSD_code = EYEYAI | q = 0 | S = 0 | Stoichiometry = C29H47NNiO2P2S2 | MND = 4
Ni       12.51615602292082    4.02983892355952   14.83986483738159
S        11.72272995785772    5.65739758759293   16.03654341442363
S        14.65940558601053    4.80522143977932   15.06993834303581
P        10.58152063626913    3.71076991367603   13.79679298973203
P        13.68941523195693    5.73991058708054   16.63914527580028
N        14.14876917683040    1.69257702613524   14.07536555672061
O        13.98936251651573    5.20741723059750   17.96615384610135
O        14.10865878049753    7.29582269490969   16.60021156539263
C        13.42766985764834    2.58822674268043   14.29700222411887
C        15.16841233248580    0.85991359587235   13.75419672668914
C        15.26772597761448   -0.37892137782143   14.39725954899696
C        16.32371469844966   -1.20630511762237   14.05013409176560
H        16.42533915235525   -2.16531349336762   14.53560003112372
C        17.24655548774773   -0.81231294250270   13.09617496372961
H        18.06397863801890   -1.46847699248051   12.83828315743722
C        17.13326187765487    0.42100285727377   12.47636108381706
H        17.86376315753868    0.72308498352261   11.74091434225784
C        16.09601378921422    1.28372911678340   12.79140205109163
C        14.26327711348037   -0.76062069087304   15.43776633174848
H        14.23117790662867   -0.00767009368335   16.22478467090883
H        14.51380596770261   -1.72012548786445   15.88132240883589
H        13.26619037077275   -0.82370901401384   15.00281014710096
C        15.94680005226446    2.62468230304686   12.14953440926112
H        15.03839679465828    2.66095155752148   11.54775351954838
H        16.79847043621521    2.84184573409832   11.51159888185879
H        15.86143399204207    3.40168209615146   12.90937214839742
C        13.89258385903842    8.12049791105067   15.47451224071299
H        13.57238047991777    9.09140542052040   15.86807719821578
H        13.07896639235502    7.71205382381309   14.86036690376149
C        15.15547870367375    8.27486162823172   14.64195613719722
H        15.96115220879468    8.65896232394534   15.26252614287050
H        14.97168424258871    8.96700428190504   13.82362907805356
H        15.46007001842861    7.31272950815935   14.23538833877305
C         9.02514386813824    4.26675767345330   14.63488975744196
H         9.28707275873899    5.29311585165560   14.92835991161215
C         8.80029018144189    3.48813930759792   15.93074476595136
H         8.46566980979845    2.47271814084611   15.71004085923190
H         9.74012258760300    3.42876219596856   16.48735457757466
C         7.73566546778438    4.19735482579656   16.76238653522446
H         7.55440863136907    3.64405123964535   17.68566722243495
H         8.09672345674528    5.19116191257203   17.03280415308848
C         6.43689642141452    4.32114759631168   15.96878960273174
H         5.69389769494105    4.86341057033538   16.55634683073709
H         6.03839890877218    3.32304447311472   15.76942031897988
C         6.67264770578627    5.04196061463317   14.64344989193685
H         5.73938601271393    5.09356399902337   14.07831610392777
H         7.00259901884341    6.06410855064415   14.84028073305690
C         7.73525561948751    4.31263570937974   13.82060040166797
H         7.88632609863569    4.82016587948828   12.86662969289770
H         7.37948976650008    3.30400907699337   13.61301775817111
C        10.40609147567999    1.99820352261266   13.08070204776200
H        11.31046460763860    1.91444036296949   12.46030443580640
C        10.50838031299861    0.92855196058969   14.16754007314696
H        11.33544218052533    1.16914951060881   14.84345296216605
H         9.59108041802179    0.90444742800964   14.75638358759191
C        10.71623844855840   -0.43752157847992   13.51896622300206
H        10.78130889114660   -1.21058559149735   14.28744024203374
H        11.65443935317309   -0.43589329980442   12.95831780531789
C         9.56000990394504   -0.75301360651565   12.57234038065212
H         9.73352523433860   -1.71206556218802   12.08100667427689
H         8.63624478485191   -0.83710975814105   13.14917383874055
C         9.39994965976705    0.34454853133080   11.52362002926595
H         8.54473495916292    0.12077383423161   10.88289758576539
H        10.29089065256442    0.37871844884305   10.89266246073827
C         9.19894444957989    1.70319719874964   12.19566021018344
H         8.29401033910787    1.65817046822820   12.80077323522449
H         9.06648419227913    2.47622838935402   11.43761399635410
C        10.77006576671156    4.79107574454673   12.28562964409672
H        10.05838280743746    4.47977409203599   11.51236190732224
C        10.54562628481611    6.25980227063065   12.64681613286479
H         9.50940957134291    6.42901710802975   12.94049962985513
H        11.18265959279932    6.50375971715962   13.50157215910503
C        10.88942807133188    7.18113370741286   11.47928766964105
H        10.22240738569859    6.97094857271287   10.63884556966752
H        10.73039976461592    8.21844865699498   11.77965054853916
C        12.33427197447270    6.97876019563199   11.03985693168027
H        13.00464284978105    7.21885684924718   11.86738211471597
H        12.57198352156726    7.64458811985313   10.20831699816523
C        12.54450532331473    5.52712827442547   10.62840183872732
H        13.58074753274255    5.36838805952853   10.32473347077516
H        11.90337284198361    5.29353808971098    9.77425677708710
C        12.20725554372026    4.59710830606258   11.78790587039629
H        12.36426499747200    3.55997491507709   11.48274752291443
H        12.89272088210609    4.80881536683067   12.63403770244075

