74
CSD_code = EYEYIQ | q = 1 | S = 0 | Stoichiometry = C30H34N4NiO2PS2(1+) | MND = 6
Ni        6.74361263852874    1.50236849675686    3.59211190082531
S         6.56961025384393    1.15082757268039    1.32359342663882
S         5.67240633095929    3.51351644490146    3.42890900581223
P         5.97696364569844    3.04455113364801    1.49579189033571
O         7.07705469773620    3.95169307070578    0.80722560001915
C         6.97670106352917    5.38351529835056    0.76187286150846
H         8.00440759662358    5.74436207354773    0.86277767537163
H         6.38480756759302    5.73362506845802    1.61478425519315
C         6.37195599134433    5.85092436034628   -0.54697625133737
H         6.95497520245908    5.47145097015148   -1.38212500647539
H         6.37280929475227    6.93715643393364   -0.57724684377820
H         5.35099420990020    5.49190800430023   -0.64287796942594
N         4.70141915546601    0.48186949242162    4.22523780803645
N         6.74869673836266    1.64880167334937    5.55258246108123
N         8.95495097618165    2.29400846199276    3.32769637290455
N         7.79843347379155   -0.11889476294358    3.72913602403214
C         3.66206033404779   -0.00905607408139    3.57589522366595
H         3.71826044956300    0.01025563119399    2.49570786726087
C         2.54778687765318   -0.53941024834593    4.21568088527567
H         1.72573687046299   -0.93185696103429    3.63898731023310
C         2.52052290840293   -0.55689014028382    5.60114006946203
H         1.67400812551753   -0.96459361143447    6.13206282281046
C         3.60029717800376   -0.03458758232529    6.29301769494742
H         3.61500507485192   -0.01682668048897    7.37142036488122
C         4.67380728209030    0.48119260886831    5.56810597236373
C         5.82536378613183    1.07089640282608    6.22525047700986
H         5.86001264667036    1.04223318572136    7.31392673232353
C         7.86817107668047    2.17550308076649    6.20480379025856
C         8.60013023579217    1.40366954942625    7.10718616680557
H         8.28974331474828    0.38960682660849    7.31469261339823
C         9.73468567648473    1.92165648802061    7.69929542546319
H        10.30252354298467    1.30912190586691    8.38385738539335
C        10.15451674853336    3.22129438318745    7.43316149473082
C         9.39918103057192    3.99403681108948    6.55430258065619
H         9.69931831243741    5.01180687474568    6.35352946253777
C         8.27681436273519    3.48263173362630    5.93871568220701
H         7.68098050460371    4.08591823639836    5.27138615008301
C        11.36893069714340    3.78473875321205    8.09580067276525
H        11.08357401637696    4.28078190660641    9.02386447403114
H        11.85356698989633    4.52203774682227    7.46071858322195
H        12.08071596883878    3.00105783634858    8.34188408003237
C         9.50584112470214    3.45401267816518    3.02203820385056
H         8.84146323722479    4.30717991911600    2.98452812280601
C        10.86323397468736    3.60625926293099    2.76683677655293
H        11.26484153426383    4.57629531046875    2.52169449526450
C        11.68422458579441    2.49238487605708    2.83968508005595
H        12.74359334533844    2.57382871939046    2.65037121766997
C        11.11781442475631    1.26965270950004    3.15762685407879
H        11.71779310609221    0.37515138788171    3.21576214200783
C         9.74464903800530    1.20904351818809    3.38976499924680
C         9.07579995969497   -0.04170143633636    3.69445691054022
H         9.69269521545868   -0.92550574527894    3.85347974847936
C         7.17566457599109   -1.32452100114319    4.06986389145537
C         7.51384067289537   -1.99097213498850    5.24713509290785
H         8.27923777380023   -1.57978517300534    5.88951912848902
C         6.84818125864190   -3.14710924587704    5.60348414918684
H         7.10755542464013   -3.64549801317062    6.52562970472584
C         5.85471615115762   -3.68284609484159    4.79043484502212
C         5.54841160889674   -3.02737088767252    3.60019425015722
H         4.79574515179651   -3.44267985277620    2.94681970758182
C         6.18854544152932   -1.86007858955459    3.24242949355987
H         5.96247661715727   -1.35844458699328    2.31423040646220
C         5.15280768326199   -4.94627171740959    5.16784684931097
H         4.12788692164208   -4.94589857801933    4.80526921100731
H         5.15142264309322   -5.08780369966755    6.24539860905591
H         5.66386545252944   -5.79815951843264    4.71862321080339
O         4.68525691236338    3.41734720401259    0.63015494431943
C         3.39563963614166    2.87580886354740    0.91359725328231
H         2.68621973363055    3.67548122461988    0.68436658834324
H         3.32609727814512    2.63931232744513    1.98218338968315
C         3.12384860320248    1.65153791144425    0.05847288652644
H         3.16676805228162    1.91719273026754   -0.99447632437348
H         2.13565410850398    1.26030117200712    0.28399783946667
H         3.87099590471981    0.88295400424647    0.24599312991387

