74
CSD_code = EYEZUE | q = 0 | S = 0 | Stoichiometry = C34H24N4O9S2Zn | MND = 6
C         2.73251534527071    0.18795079954430    6.60388354526345
H         1.92581528061309   -0.51227025650117    6.76521963731795
C         3.42830620926232    0.22020486598968    5.40737812121272
H         3.16518049385306   -0.45272263301128    4.60707388880310
C         4.44971411439394    1.14665145497653    5.25841959527245
H         4.99288726937205    1.22693082996452    4.32949240381251
C         4.76090784197777    1.97364015898377    6.32332748756429
H         5.52791434605205    2.72414840802355    6.23145133328264
C         4.01970494494575    1.86500090778215    7.49713883182237
C         4.27801662072757    2.71662200048296    8.66703769482018
C         5.51918405818106    3.28354286855831    8.94155900528551
H         6.36706468500449    3.08628173496322    8.30650930175064
C         5.67231944458303    4.07741321104070   10.06999855919032
H         6.64688049932550    4.49315953596592   10.33347768105106
C         4.55584834125265    4.29963940580303   10.86605555005952
H         4.62291818492922    4.92958325594671   11.73804947935357
C         3.36166516533089    3.67639760612875   10.54222642736931
H         2.47228318131877    3.79405645849042   11.14603764954867
C         2.69112034626272    0.61014473372747   11.72184736394084
H         3.63567551589628    1.03009683948439   11.40768424068546
C         2.52629234012552    0.12597578979094   13.00828606510013
H         3.33828830926684    0.17204805711872   13.71535179984357
C         1.29537819874695   -0.41129164306394   13.35579836727893
H         1.12225553131174   -0.79627740345346   14.34910914118303
C         0.29268696079128   -0.45207108496645   12.40406894289654
H        -0.66402245648534   -0.88358038639861   12.64600712440718
C         0.53752461659143    0.06333244158266   11.13131000135751
C        -0.46342391748900    0.04828663831934   10.05619879563471
C        -1.81566547477452   -0.20002894349100   10.27644701077764
H        -2.19680532656356   -0.35217618806836   11.27137850759942
C        -2.68435645398833   -0.19020398727395    9.19848744664566
H        -3.73996015514211   -0.35326518614846    9.35050230675152
C        -2.17677758046555    0.04900912894115    7.93228913163459
H        -2.81709748877547    0.06337555602474    7.06540039959213
C        -0.82058008339803    0.30216423380853    7.80074515190482
H        -0.38687583085921    0.52657277360580    6.83751213834794
C         1.08304001053554    5.04412119288422    8.44041980235500
C         0.97282668047203    5.98174723530015    9.45219334009039
H         0.10556833528209    5.96732167260619   10.09354709952557
C         2.00113943288569    6.88883776724806    9.64439282679439
H         1.95950265822978    7.62631204465431   10.43231130592021
C         3.15666803378090    6.81457955104989    8.87033443936906
C         3.22804557111606    5.91009109823216    7.80787441980958
C         2.16623585069326    5.04086455145746    7.58846124144034
H         2.22039172439558    4.32162409259054    6.78549415265157
C         5.67233251157175    6.27502176169355    7.60506240325445
C         5.62093966262363    7.09443110579083    8.75131437995177
C         6.78490354992066    7.32079873658539    9.47400538371865
H         6.76275271396661    7.88714921983462   10.39264896614481
C         7.97908887050409    6.75094526359035    9.06804674366547
C         8.05478957358656    6.04003972363425    7.88194692541178
H         9.01366802760068    5.63540993550549    7.59716695762298
C         6.91129700693470    5.81926249100754    7.14159508488768
H         6.93195007391984    5.24585200739088    6.22540466895107
C         4.46041416499507    5.74021337921271    6.99305767106575
C         4.34342012323963    7.62768415787775    9.25549729514450
N         3.22943792077755    2.88800187025488    9.48183221826520
N         3.00934935421200    0.99547443629193    7.61840769001885
N         1.72772849330976    0.58678162784762   10.81265292503675
N         0.01232643488994    0.31021123310225    8.83090306733491
O         0.69383887644754    2.66794590105809    7.47577191118030
O        -1.32697948858421    3.86687361823780    8.20449965550945
O        -2.28679836450950    2.60682010185424   10.70386334193520
O         0.31302572367651    3.00358806515363    9.79248878874390
O         4.45559902052185    5.05868420594181    5.97881682221954
O         4.25152479800866    8.58935307685949    9.98782859667235
O         9.19655385165861    7.38258951897233   11.33495200613487
O        10.41049992396442    5.97228708679648    9.72173394830415
O         8.35551488020563    5.14703972209829   10.77621350613629
S         0.05850582062443    3.58562621524159    8.43987944175937
S         9.16563394485796    6.31537096218050   10.36659500284318
Zn        1.62103371559570    1.64791807809049    9.00916722950172
H        -2.71282168693484    3.10983321596478   10.00330476745637
H        -1.34243086768857    2.75635209679226   10.55255384459463

