70
CSD_code = EYICEU | q = 0 | S = 0 | Stoichiometry = C22H34BCl5N7Rh | MND = 6
Rh        5.20974278045722    2.83020991694982   11.47464214949874
Cl        5.99711754654505    4.75807323289313    5.96387460324495
Cl       -0.60325463573096    1.96799066475705   11.85881871025762
Cl        5.75589476388737    7.85250145848286   14.56856887154523
Cl        7.48068713238634    2.95111208009350   11.43135740950998
Cl        5.12765814341075    1.95804148097778   13.56965471278161
B         3.39772311422503    5.24178098869031   10.58466052920950
N         5.18159495452568    3.75783824037268    9.61271076260547
N         4.32266347670028    4.77693783329901    9.44546820025402
N         3.13303099924938    2.89483044248332   11.45836408111357
N         2.55681844006798    4.02787998575261   11.02309060827744
N         5.13700938734389    4.76103089514426   12.31858950500895
N         4.28063447101645    5.64290359670771   11.76865695373591
N         5.83361377380330   -0.05836772434842   10.81887381622641
C         5.19704618991647    1.05153224692588   10.63035048418819
H         4.47949360709468    0.96482562706079    9.80174338948031
C         5.87470358330685    3.59435366203002    8.48962526345952
C         5.42940289405769    4.55295550411325    7.57003525722997
C         4.44550715719252    5.28981593820606    8.20802465071394
C         6.93776580308168    2.58800025832444    8.25107000824591
H         6.97186465666515    1.86995210322015    9.06338046447778
H         7.90446192530966    3.08780592733572    8.20101679001703
H         6.76511488202964    2.08367270929991    7.30121259756042
C         3.65652100867211    6.42697122011945    7.67392939250291
H         2.59128059141521    6.20782758679350    7.70707471861036
H         3.95004025860028    6.60773196243179    6.64329937185366
H         3.83796698251978    7.32773377182027    8.25670943527522
C         2.17907958172083    2.03733139219838   11.80890662630042
C         0.94344945162804    2.65679631276020   11.57990772055092
C         1.21729604959171    3.92031338625921   11.08343881418971
C         4.34164888755611    6.81771839148848   12.42212552166730
C         0.25754260860909    4.97853880857536   10.68343586170349
H         0.38812200587550    5.86774414042596   11.29679275846772
H        -0.75467909265639    4.60510260678932   10.81365995844502
H         0.40227903300903    5.25808223479858    9.64193078207822
C         5.76231403617380    5.34856395553897   13.33543047609204
C         5.27896042775608    6.66210394882320   13.42836511979491
C         2.38013847364676    0.67403246543337   12.35732419340255
H         3.42873441895003    0.39926634049541   12.31916427270237
H         1.77477794536223   -0.04256429487005   11.80384768890126
H         2.06250594142880    0.65391714260050   13.39902445725727
C         6.77570074382494    4.71888474685104   14.21534400048471
H         6.29929397365119    4.00310508030143   14.88436472124032
H         7.26954806935563    5.48594996562200   14.80648820868366
H         7.51288575587509    4.17871527853718   13.62533501364010
C         3.53692233820295    8.01867875564832   12.08687942111278
H         3.73645903430598    8.34476751668560   11.06789826971907
H         3.79757605203497    8.82042059269211   12.77260723486680
H         2.47291759798228    7.80782066916350   12.17664157981653
C         5.56047819194095   -1.23429104455891    9.97507960465732
H         6.21541410388825   -2.03326350959404   10.32619250448874
C         4.11513604116377   -1.70256506541112   10.13483785133967
H         3.89080414147650   -1.89497706227645   11.18079121085303
H         3.96878074111686   -2.62336773216311    9.57592608610688
H         3.41341361337469   -0.96213660938948    9.75985187030089
C         5.89950060916097   -0.95307961551398    8.51217425634098
H         5.24994234843904   -0.18920331044793    8.09272576139643
H         5.77446817077275   -1.86256947808106    7.93007649378559
H         6.93054522413105   -0.62243763408307    8.41677962011805
C         6.85178135701957   -0.23170178419545   11.85869347132881
H         6.92739983018945    0.72345537719680   12.38178557760663
C         6.41802225831153   -1.28235873546904   12.87594619557475
H         5.47699680291904   -0.98413697844794   13.33068346038673
H         7.16469657067428   -1.33016928357404   13.66263186476116
H         6.31591096636739   -2.27525573869958   12.44317182475962
C         8.21473055596614   -0.53088159860710   11.24238732487184
H         8.23823879685291   -1.47497406175898   10.70227188043408
H         8.95104211022635   -0.57722165208669   12.03887841988334
H         8.50025395006690    0.27788151845981   10.57480830392645
H         2.71096639430950    6.12842295195529   10.23679097909980

