32
CSD_code = EYIDAR | q = 0 | S = 0 | Stoichiometry = C13H9Cl2N4O3Re | MND = 6
Re       11.02380549370857    6.20353907723521    2.55323543237766
Cl       13.10339788310396    5.08772770713220    2.21404366954968
Cl        7.25716962521838    1.59567051130050   -1.82807121880560
O         9.78169217482290    3.67844191091913    3.83726371186150
O        12.47029649732331    6.97275606494731    5.17608085024044
O         8.38949748957825    7.79630084430883    2.87913069449022
N        12.01659056353846    7.77807869200224    1.47553538504774
N        11.17784638410628    6.55399960198040   -0.35910030718533
N        10.64154374340427    5.79418980018263    0.53508845397112
N        12.68995748587246    8.40940588699830   -0.53945911879921
C        10.21926327285643    4.61171197049099    3.34035196054084
C        11.83251196639312    6.70387700509997    4.27230673784635
C         9.36929348353160    7.20465463235458    2.78793242232044
C        11.93318969507110    7.53350646397286    0.16247310150335
C        12.85138609733185    8.82742848394241    1.61508912342555
H        13.09846338957996    9.23001980307112    2.57753786941699
C        13.27896288179481    9.22858987358295    0.37474722027388
H        13.94508076760365   10.01539017385376    0.08607908090531
C        12.85380368485033    8.42773841873197   -1.96519337614053
H        13.90468944563280    8.29148639642998   -2.22646958786508
H        12.50681862101381    9.37902609016884   -2.37330570886448
H        12.26703046126362    7.61337744405904   -2.38616421657429
C         9.83738190804178    4.79815906750759   -0.02496420159107
C         9.85643714285834    3.50428232443020    0.49780266335027
H        10.52674709222098    3.27007109986504    1.31067967681189
C         9.07332574147240    2.51761550922194   -0.06298990949731
H         9.09705378636600    1.51445041089724    0.33178172658198
C         8.25446976047775    2.82119571580024   -1.14301235692066
C         8.23427530869896    4.10132897424819   -1.68114808675179
H         7.59627873618761    4.32272558527761   -2.52211116992758
C         9.03435730950734    5.08096727134197   -1.13276424400263
H         9.02798210657266    6.08348718864803   -1.53320627759086

