107
CSD_code = EYINUW | q = 0 | S = 0 | Stoichiometry = C52H39ClN5O6P3Pd | MND = 4
C        14.76259278356708    4.10684616296582   11.47734371938471
C        14.20566768791097    2.83377256318488   11.51940275454772
H        14.63597923077009    2.03871163928850   10.92366007350505
C        13.10135900785242    2.56857294579761   12.31775486866213
H        12.68172692244909    1.57300403252663   12.33729451917369
C        12.53271658954591    3.56917465390677   13.09061493631979
H        11.67443510968136    3.35271761896854   13.71007599883085
C        13.06283991855748    4.84444321512227   13.07005074894079
H        12.61616624271933    5.61999071025389   13.67576373682578
C        14.17064345970213    5.12486892128624   12.27137102313018
Cl       16.92356866597467    2.99765197550630    9.39131350834720
Pd       16.32762738688905    4.81639690023600   10.45740611083808
C        14.80366828718204    6.43769978308436   12.17714770044627
N        15.86665837566868    6.44500571973226   11.34646761635531
C        18.57769928617473    8.43680527807748    9.84268194923165
H        18.45502567874831    9.42289689968283   10.26014907764982
C        19.60351538013060    8.18475489113178    8.94998746389640
H        20.28455976264802    8.97404912260174    8.66883192616958
C        19.74476479166136    6.90844185938490    8.42289867336526
H        20.53244478478941    6.67720300919133    7.72443234938453
C        18.84610569840899    5.92959975509166    8.81547499755306
H        18.90512097694551    4.91419310473713    8.43818969997258
N        17.86194708541833    6.16877100839511    9.67125473997259
C        17.70693626022285    7.40484189878289   10.19469974898180
C        16.58418505618740    7.56137277812267   11.13193120109930
C        16.24380850603347    8.74968039985875   11.76954614285824
H        16.80123387426471    9.65360703235028   11.58838809505860
C        14.42327927075057    7.60385755619509   12.82779711156692
H        13.58122209657371    7.59891804434633   13.50064067208152
C        15.14531363146751    8.78185519655826   12.62841272107246
C        14.75634582984718   10.02283632381343   13.30750952190418
P        12.91025962724332   14.97569703306674   18.56931383008342
P        14.40886703772495   14.33703740509329   16.34248546897945
P        15.07986271120243   13.27336940545175   18.82906751669610
O        13.57420988885459   13.47490097899438   15.29262751689740
O        15.30433888928812   15.19563022168606   15.34066124092026
O        12.90576698361425   16.30591927107306   19.42557371672156
O        15.19071202536955   11.75051339161272   19.24532448999817
O        11.33937597509887   14.66241234199894   18.58183189769023
N        13.71653953664884   13.88790652323688   19.42242892935264
C        16.14232991770594   16.17597895188234   15.84626525243573
O        16.35677314090654   13.70481044658412   19.67277672556606
N        15.36031758977047   13.40992311965286   17.24885515950577
C        14.01032175871004   12.35105086674328   14.64123699310162
N        13.36442995061650   15.31288670678093   17.05779953286705
C        13.03802745116242   11.52099835907747   14.09379879923743
H        12.00090732766071   11.79981422544116   14.19177019160203
C        12.29386578898361   17.44446432121541   18.91722341935564
C        15.71854662311280   10.87923342819366   13.83794816483254
H        16.76493975180331   10.62449388607572   13.75579527640455
C        13.41098400011562   10.36495563775599   13.44057825296795
H        12.65250151140053    9.73015569967670   13.00757015858789
C        17.36707082930609   15.83138801775683   16.39744226880268
H        17.63976311838852   14.78983399400473   16.46707513296879
C         9.38172841913275   13.89798610688570   17.51052764799415
H         8.89333347747445   14.79787849371194   17.85037871709887
C        15.75196824389225   17.50397141565329   15.76685601630081
H        14.78741107477559   17.73916920222070   15.34388565438860
C        14.43022232586310   10.78669499160041   18.60990401466746
C        13.25392838637674   10.34363459895534   19.19769579373698
H        12.92724976198353   10.79761424720841   20.12022372049404
C        10.72237568038086   13.70011434922407   17.82107431238315
C        18.20806674512012   16.82664189914455   16.86453646905585
H        19.15876770500859   16.56038994155786   17.30055945937438
C        17.82918587398735   18.15554931508417   16.78185608105264
H        18.48741571953940   18.92808159641144   17.14909569215009
C        17.72600266232294   15.13677748808541   20.94303601601539
H        18.15578334341757   14.25373391152500   21.38899870388889
C        16.72486408495172   14.98778373946914   19.98931528752341
C        15.35213095152876   12.03346116377671   14.50299607685715
H        16.09120762157174   12.69263662516083   14.92884406238957
C        16.57250937004064   17.36963602612831   19.77907188996992
H        16.11518310510807   18.23674174539031   19.32780393299055
C        16.60214882524108   18.49164098950880   16.23418140023942
H        16.30107600361537   19.52707317866059   16.17371668753171
C        10.98274082354598   17.73135150812699   19.26243259680741
H        10.44462372473920   17.04115398356191   19.89333699599015
C        11.37469866978794   12.55727295775574   17.39032091286698
H        12.41498152124626   12.41288795890819   17.64362192343621
C        16.15667728534014   16.10476788500653   19.39970584966043
H        15.39362457164458   15.97449860401318   18.64658626585992
C         9.34987516704015   11.79764961364329   16.34773573736121
H         8.81457533211957   11.05480880956113   15.77578852455556
C         8.70169120798036   12.94551831542197   16.77473497079396
H         7.66085491085343   13.10121227974909   16.53383572527437
C        14.86900539438026   10.23926974381251   17.41395813793749
H        15.78211957415718   10.60709643945956   16.97440747090546
C        11.10260421072464   19.75621580820937   17.97714153567537
H        10.63690549275872   20.65802764073649   17.60909039616917
C        14.13177922524091    9.23509918123275   16.81030871334982
H        14.47912581428267    8.80703726510632   15.88220649948099
C        12.96156892251405    8.78285011184370   17.39579384155427
H        12.38997700459427    7.99597279504823   16.92635922132650
C        13.01147625241363   18.30415819277926   18.10113530902025
H        14.02630169196178   18.05319343645589   17.83467418104089
C        12.41063767843745   19.46001351143574   17.63288293808048
H        12.96726512758690   20.12984275505119   16.99444270961634
C        17.56689917287179   17.52243350290489   20.72838948915208
H        17.88931872196826   18.51018335608277   21.02028815608147
C        10.39143401184828   18.89120073867988   18.79180135313621
H         9.37017585756779   19.11669909527345   19.06028120017987
C        18.14574538186150   16.40308441047741   21.30443984692358
H        18.92350070082405   16.51542166002794   22.04477881111694
C        12.52425353402344    9.33844265034775   18.58748133535586
H        11.60870549384912    8.99291177959764   19.04304612592343
C        10.68469175633745   11.60578555662370   16.65867533760674
H        11.19993731140759   10.71141219014855   16.34221690610739

