61
CSD_code = EYIPEH | q = 0 | S = 0 | Stoichiometry = C22H28I2N4O2PtS2 | MND = 4
Pt        3.67403876281670   -0.00029561554348   -0.00051223685266
I         5.78210717993724    0.35037535627846   -1.52707270366328
S         2.31722884991938    1.15271887978864   -1.65810740170926
O         1.32760355832121   -2.80089233240463   -3.60512295818369
N         2.26151045646882   -1.42879980030157   -2.05758687841497
N         1.10103927040610   -0.14185589608306   -3.60556425322441
C         2.55907046057672   -3.79516400370605   -1.82307120196768
C         1.96252455237127   -5.04417170203243   -1.99833972316786
H         1.13904210659275   -5.12847572585587   -2.69132553588885
C         2.41087373302661   -6.13956925340844   -1.28742459343448
H         1.93668152163265   -7.09980573471862   -1.42284114924112
C         3.46669620346254   -6.00289572255510   -0.40038665848533
H         3.81644775532652   -6.85705017766154    0.15982292281594
C         4.08054369758422   -4.77125295232109   -0.23758579542516
H         4.91169343523495   -4.66411121242428    0.44256878060729
C         3.63452905978234   -3.67019237418365   -0.94319093679764
H         4.16796687818450   -2.73555701530212   -0.81482978559515
C         1.99597092395595   -2.66823649122744   -2.59489932038172
C         1.84786308947122   -0.21634943550336   -2.52159242568804
C         0.62283400312743    1.09997047385317   -4.16355156071566
H         1.47080136740515    1.66874490995138   -4.56608150750068
H         0.17454062768657    1.69808908378196   -3.36124834757968
C        -0.39963821496897    0.82794057649613   -5.25872694143054
H        -1.23342842478429    0.26277243489832   -4.83754874413020
H         0.06357000867476    0.21895147469642   -6.03779901020492
C        -0.91462984057965    2.12759288833278   -5.86355007556022
H        -1.39213684577934    2.74069856885496   -5.10295507533402
H        -1.64229025558724    1.91869396896593   -6.64273680890910
H        -0.09714105453018    2.69646370515125   -6.30015085843746
H         2.80766142456234   -1.33783157942316   -1.16848028367986
H         0.88395795172212   -1.03118367347278   -4.06201922648871
I         1.56768765524085   -0.35052627443212    1.52794012265362
S         5.03085926885525   -1.15241865997829    1.65799023990118
C         5.50051344907716    0.21642563639452    2.52160735590063
N         5.08694803577830    1.42883823470539    2.05752584557339
C         5.35243411011900    2.66826869005870    2.59490134235350
O         6.02068698081058    2.80088451763675    3.60521083717058
C         4.78960415385709    3.79524690416878    1.82294816295887
C         5.38616762914857    5.04421346607245    1.99844542767226
H         6.20944088601442    5.12845108871206    2.69168938661793
C         4.93807028465061    6.13966218431277    1.28745568521729
H         5.41233788030272    7.09985276681645    1.42297436064116
C         3.88255137560171    6.00305802689973    0.40004518334521
H         3.53316632981010    6.85719482044828   -0.16041803253953
C         3.26867789805803    4.77146905616971    0.23702881368163
H         2.43771932210106    4.66438806692310   -0.44336946500531
C         3.71436134963743    3.67038923024118    0.94278778435783
H         3.18064364225285    2.73588940936049    0.81450026931243
H         4.54080387179478    1.33770171787858    1.16834306297216
N         6.24727090680914    0.14184439586438    3.60562999395475
C         6.72541032659591   -1.10002304322734    4.16358882364906
H         5.87738266098777   -1.66887374023741    4.56587839908091
H         7.17389430209831   -1.69803593237878    3.36131499407109
C         7.74765000448531   -0.82807283399106    5.25900005703306
H         8.58154881598495   -0.26289009965350    4.83805532985510
H         7.28427005164789   -0.21913091542004    6.03800439818145
C         8.26246839754464   -2.12778506161243    5.86384445700994
H         8.74036221108764   -2.74074367371069    5.10337454884964
H         8.98976497712746   -1.91894559455278    6.64338773224690
H         7.44482976194911   -2.69678208114833    6.30000004517430
H         6.46424121835709    1.03112807451192    4.06222513281855

