50
CSD_code = EYIQOT | q = 0 | S = 0 | Stoichiometry = C26H19N3OPt | MND = 4
C         2.96412757158563    7.98137228579986    4.44451545099626
C         0.52334091924623    8.42037650588964    4.33697328395368
H         0.50714812816897    8.04384990645539    3.32665503878539
C         2.95750791775157    5.55957075295579   -1.76160033318392
H         3.32034124229539    5.13384952352155   -2.68689805072081
C        -0.58646250157761    9.35724383308063    6.25413317064970
H        -1.49995157114314    9.70542553226947    6.71457937882252
C         0.59138776561096    9.39218549586558    6.94494820163653
H         0.62413587480646    9.76821076217351    7.95813321896731
C        -0.61984251733053    8.86858367382612    4.93847998732130
H        -1.55913211519587    8.85002927146409    4.40483143999196
C         5.24233689753741    5.44013744088849   -0.87923828220672
H         5.55407151491462    5.01183408204697   -1.82222997605507
C         8.64214509272039    6.50959971764890    6.80117829490901
H         8.77780049871421    5.80547310435599    7.60772282197116
C        10.98847601891725    7.34248635338735    7.15036688978498
H        10.84060835874585    7.34281503561829    8.22864434184036
H        11.60198129020585    8.19601707317128    6.87506607460558
H        11.52749750591657    6.43138250696251    6.89094798612488
Pt        5.61915287724910    7.26328858711216    3.96557256932672
C         9.67506766487083    7.37392424329455    6.44203431843969
C         4.18283971636419    8.01581591134534    5.14917964860885
N         7.21423400043934    7.40310226003097    5.11546133396428
N         4.11933218771434    7.09112704300598    2.77793772980193
N         2.96187271696360    7.47884098745119    3.16149907029827
O         6.64093346822546    6.37912468997140    2.27144859984791
C         7.44055767837330    6.55591236237700    6.12507327077775
H         6.61848863448368    5.90213946794392    6.39679448926616
C         4.37893790993189    6.55406262893544    1.55117762021187
C         8.19709027694526    8.23492290243326    4.75989183953920
H         7.98411471779462    8.90730806368751    3.93491107135767
C         1.75198944057399    8.44103864624789    5.02434623727194
C         9.42426920772173    8.25256735825256    5.39166612375548
H        10.18441100622640    8.94559690201726    5.06525425062270
C         2.05743226219729    6.64932991701253    0.62430018817093
H         1.70406767932678    7.07133040179314    1.54930337628558
C         5.75897280242061    6.20385949397099    1.36388752519913
C         3.01684584260826    8.96352993474665    7.04438460074512
H         3.03383448480282    9.34594113807158    8.05600680269835
C         1.79066016645515    8.93838801138048    6.35428116907706
C         6.14590788950606    5.64052794694839    0.10918022105994
H         7.18756684175738    5.38231614539297   -0.01184612182542
C         4.17617109777818    8.51436676336697    6.45491961782742
H         5.10168887899017    8.55023657416215    7.01699931425504
C         3.42256331420021    6.33726153926953    0.50479099807653
C         1.63113602202220    5.87756177358484   -1.61639320130063
H         0.93537704212922    5.70719414584408   -2.42486175589166
C         3.87172709731695    5.77703276784810   -0.71947813076700
C         1.18483851382150    6.42378423314696   -0.41232913645849
H         0.13990066890777    6.67262430195845   -0.29470257844313

