47
CSD_code = EYIQUZ | q = 0 | S = 0 | Stoichiometry = C23H19N3OPt | MND = 4
C        -2.75204712739037    2.39781127208294    3.28852164605765
C        -3.07318567252712    1.22019609403321    8.82548817396033
H        -3.61774015798124    1.17970998397702    7.88920234011164
C        -1.74860675845004    1.48339866800426    3.59953017325116
H        -1.39567613185281    0.78628267362374    2.85520222446467
C         2.10863988267004    3.42737656602942    7.47236625611635
C         5.03298836003212    4.00712811708459   10.63821303160789
H         5.94046422132696    3.44831054996992   10.41084139899407
H         4.66012508885529    3.68583517869932   11.60708822122490
H         5.29920588971253    5.06215933369849   10.70005881082599
C         2.76625120753627    3.26631504104769    9.85674273384013
H         2.48565704962085    2.98598059474448   10.86119676836756
C        -3.74554871149645    0.76474967001067    9.99209766185795
C         3.39798544034310    3.95982639598094    7.22107421719823
H         3.64530553244372    4.22879887112302    6.20496057827763
C         4.29738766614449    4.13042503441659    8.23721846610553
H         5.27314356718537    4.54192296743408    8.01668066913685
C         4.00167215196239    3.78962800330627    9.57222264536380
C        -3.39108726976928    2.43343241484101    1.94017337844771
H        -4.32281772644848    1.86715315790449    1.96020505844887
H        -2.74169114566010    1.99057222332137    1.18955995156704
H        -3.62825506735598    3.45487007983281    1.65186722617543
C        -3.14967595438670    3.26577477571304    4.30321273766891
H        -3.92210728956797    3.99750459085331    4.12258646435362
C        -5.03271371461230   -0.12123037709813   12.31438313728632
H        -5.54342690817685   -0.46638769547381   13.20169978875885
C        -5.69580804813203   -0.15385384271986   11.08099184491379
H        -6.70975581185979   -0.52423801412960   11.03213849001622
C        -3.74799235540600    0.34459740175780   12.39313428840368
H        -3.23057688403407    0.37242649580847   13.34158305924447
C        -5.06404536150434    0.28012918601116    9.94486074348425
H        -5.57478305362053    0.25481791554362    8.99199212527674
Pt       -0.52812357269787    2.41672561383580    7.48770490802900
N        -1.58746725492173    2.31054029142978    5.82925317749687
N         0.57403544584127    2.56423761767346    9.03745349854326
N         0.16270835721647    2.20170874590952   10.19067896507848
C        -1.19673613236745    1.47297218497825    4.86424123239412
H        -0.40762603570929    0.77456540550502    5.12374255995310
C        -1.79390339968645    1.69015761080153    8.86523444447131
C        -2.55346927983998    3.19006690530111    5.54541655747757
H        -2.85567942305492    3.84848968440359    6.35302264997393
C         1.82022611022646    3.07970632804836    8.83613567737871
O         1.24449030598427    3.26126384094111    6.54063368391984
C        -1.75084405475063    1.28341033169305   11.29489895862024
H        -1.22540981188991    1.31689821000050   12.23748325055147
C        -1.12752885370829    1.71742493810516   10.14918873871824
C        -3.07255730824276    0.79770896394181   11.24241738658771

