69
CSD_code = EYIREK | q = 0 | S = 0 | Stoichiometry = C35H27Br2N2OPPt | MND = 6
Pt       -2.23355069274030    6.55428980514256   16.62867814910469
Br       -0.13134412695530    6.25597727149891   15.33251378277050
Br       -2.55375069784378    8.88412472075967   15.80297012431636
P        -1.82045361092101    4.46757051505376   17.62649486740653
N        -5.00741093862623    6.52613527618205   17.13217324190092
O        -1.42344733614674    7.22774799546475   18.66881509972704
C        -4.88634293876063    6.02499012353150   15.87082977481222
C        -3.77959856337079    7.35115981587749   18.91332772834243
C        -3.61849110396668    5.92504528541733   15.28343608750931
N        -3.91118741733823    6.83282831788834   17.67500037938365
C         0.78287093600617    5.08450646972952   18.42429998872647
H         0.44496620540443    6.10908539935817   18.48156623720610
C        -2.03819430512393    4.53748485607759   20.40948747358329
H        -0.96083076036313    4.62329637105404   20.41555625159041
C        -1.94988705846711    2.99540641096244   15.30892378578419
H        -1.28937601645124    3.76082072256941   14.92767786949960
C        -2.71100934963979    4.36735302859401   19.20416314340175
C         2.09101374517876    4.76853738776241   18.74100096550050
H         2.77110543602218    5.55092414602170   19.04184507456808
C        -3.57916263567522    0.99545045887489   16.31678774420585
H        -4.20483157663726    0.21001214536013   16.71437150597026
C        -3.38343902915309    8.32704141388937   21.46445614518116
H        -3.24436550397696    8.71521994690292   22.46377922339183
C        -3.17443296567837    0.95860449910286   14.99287189433749
H        -3.49390321067906    0.14867253175593   14.35452180096596
C        -6.04396098200784    5.62288073866841   15.14409394047214
C         0.34599751566833    2.76058282885701   17.94884067347886
H        -0.33030727639159    1.97844223036651   17.63400095240162
C        -2.34890517663430    1.95347063437914   14.49392040212154
H        -2.01367379466182    1.91825650610547   13.46876713604635
C        -2.43411456401349    7.53312281981719   19.38234607889112
C        -5.87462851433255    5.14477419455391   13.82003162490706
C        -4.58314656276351    5.10174844781411   13.25663936525439
H        -4.47058521912704    4.76391037877519   12.23703003846692
C        -2.29082138221429    8.03695022229099   20.70124685555819
H        -1.28863483123797    8.18865375546640   21.07186555093016
C        -2.74986756331493    4.60990899640478   21.59382345926364
H        -2.22274926568199    4.74985601440192   22.52550055539600
C        -0.09390692576596    4.07928065002429   18.02510653691531
C        -7.01847517462938    4.74390338603202   13.09751141686534
H        -6.89154400924514    4.38155613449388   12.08776121231309
C        -7.33300565383186    5.69158709954674   15.69938280234943
H        -7.43927367919559    6.06625855546671   16.70547997441922
C        -4.10342093131576    4.27343338305652   19.19920003681499
H        -4.63468088083724    4.15885167764395   18.26236589496394
C        -8.26240709186018    4.81755485388149   13.66047133960220
H        -9.13266246779007    4.51146509595287   13.09895639834805
C        -3.18282211970412    2.03423240568427   17.14076079617093
H        -3.48771771867282    2.04348935923421   18.17737802973101
C        -4.88461541025377    7.65827930876747   19.72838332167603
H        -5.87010964919013    7.50410205704896   19.31512376703445
C        -4.70176983542722    8.14168975163485   20.99498907197761
C        -3.47547062719271    5.49127492061997   13.97190856244160
H        -2.50057404082538    5.47589647424967   13.50710698340292
C         1.65638388466288    2.45610264468865   18.26871493308647
H         1.99711530661489    1.43339966237522   18.20345172762988
C        -4.80593814895148    4.33910962331693   20.38654895996035
H        -5.88302643392682    4.26676881884897   20.37539618107857
C        -4.13084236097149    4.51452394473544   21.58439188386068
H        -4.68361148636630    4.58088370901618   22.50910267638121
C         2.52969772092346    3.45707012702735   18.66130284036340
H         3.55437772557469    3.21474666965049   18.90010565209169
C        -8.42134252510603    5.29565808933620   14.96934889463147
H        -9.41149841603464    5.35179464622385   15.39683117176453
C        -5.85648048656693    8.48136541364484   21.88552512364015
H        -5.79463846130895    7.92106819046288   22.81798771345157
H        -6.80144190507205    8.25228872060569   21.40051265030165
H        -5.84177489288020    9.54204723385235   22.13401335082082
C        -2.38027217221659    3.05087471019438   16.63352512355098

