138
CSD_code = EYISUC | q = 0 | S = 0 | Stoichiometry = C63H68FeN2O2Si2 | MND = 3
Fe       16.05583917862958    3.34987907026795    5.58330041595774
Si       18.47246019767368    4.84150579502731    7.08762769735184
O        17.61627140371285    3.65515334800906    6.45713606132977
C        19.48762503348489    5.72937050657942    5.74151054037493
N        17.12632928220671    0.08594882300992    5.62658170118102
C        16.05402898378938    0.87511746516426    5.58413052490788
C        19.23073337712045    0.50819566625607    6.76266392161738
C        18.46725484965211    0.54363110287797    5.58972077665345
C        19.74814938669633    7.09495378595963    5.77139147600295
H        19.34206217377908    7.69460957888075    6.57339706587547
C        20.51076624636402    7.69945249071996    4.78671132006001
H        20.70049459253643    8.76313472703997    4.82662005273523
C        20.01361663931029    4.98785962982429    4.68860459910691
H        19.81341959611703    3.92723937620584    4.65892938991662
C        17.28848306656920    6.10278862852975    7.88026018835380
C        19.70724439620854    4.26076169208837    8.41376990599349
C        18.99806191276848    1.00865544812716    4.38444654673326
C        20.77590716238072    5.58324348405769    3.69979283359518
H        21.17677645057460    4.98951967839473    2.88921990868969
C        18.60513613730936    0.04836271426292    8.06059220216671
H        17.88313738214919   -0.74259968012097    7.83839680853835
C        20.32068661978556    1.43284352405669    4.36788675090239
H        20.75642659717443    1.79414904438075    3.44863770310349
C        17.84019148024086    1.21337979546934    8.69463672868197
H        18.54006694938647    1.96037072539175    9.05660631416708
H        17.24199859611890    0.85922032325609    9.53227056168139
H        17.19237119498003    1.69192619103376    7.96200384167731
C        20.54452256744957    0.94723434112276    6.70431678119441
H        21.15408543345384    0.94767988445154    7.59248230828020
C        17.85829266611507    2.53181307541999    2.77643752898430
H        17.35728515715845    3.02030554200168    3.62071845089215
H        17.20309079917514    2.58426952526283    1.91056226442320
H        18.77142571714423    3.07723135876351    2.55434242147994
C        17.72567302132969    7.06051501177666    8.78981765686492
H        18.76868072994300    7.08010609656054    9.07530577107811
C        15.05333662447706    7.00666641651833    8.08725230793885
H        14.01080677353264    6.97859304321839    7.80786515676176
C        16.84921984482473    7.97943120317076    9.33890943115902
H        17.20963074532965    8.71648439858947   10.04322331556775
C        21.08687102349588    1.39943425558929    5.51576272445438
H        22.11285733169055    1.73620279100921    5.48804531337515
C        16.81160744250334   -1.34307543730827    5.48809717006345
H        17.34467941020802   -1.94833889448908    6.22282881284627
H        17.10506902815287   -1.68647171979068    4.48792146462747
C        15.50975828211536    7.95523643099061    8.98720847326483
H        14.82312091667710    8.67204034637573    9.41434027589492
C        21.00996723025406    3.92241044231115    8.06826076297319
H        21.31350988395297    3.99706983764762    7.03456329997371
C        19.34637651101815    4.17639946413794    9.75532297925455
H        18.34088021458558    4.44593111401252   10.04730560877518
C        19.61525118357168   -0.52190913482566    9.05579650051441
H        20.24315407345621   -1.27614651825264    8.58560393385854
H        19.08753088599878   -0.98361864670851    9.88803104826797
H        20.24907225075880    0.26332269282196    9.46005327905213
C        21.02854159335052    6.94429838809920    3.74760650025456
H        21.62324767598416    7.41507119070289    2.97741436116856
C        20.24889627993407    3.75638743791361   10.71674674034602
H        19.94741838889644    3.69726323845724   11.75339638216720
C        21.53863840973433    3.40943614134720   10.35052068830086
H        22.24527377866184    3.07763139490795   11.09823480222052
C        21.91831181708419    3.49723556199410    9.02189482272207
H        22.92660092140332    3.23611560095297    8.73099050271453
C        18.16037815357975    1.07326813529606    3.12857942573378
H        17.20379001942522    0.58077171622734    3.31683234771955
C        18.83787562607038    0.35586716690997    1.95832577564897
H        19.74396488718264    0.87045136181750    1.65033715864078
H        18.16410455057567    0.32036554112456    1.10500565525076
H        19.10163460499674   -0.66358129992385    2.23359304544306
C        15.94047365377312    6.09562555486263    7.54411744036408
H        15.57268642144632    5.35325617042625    6.83574638344071
N        14.98234358438602    0.08510708942921    5.54205946653441
C        12.87836130149069    0.50650261288439    4.40497306443672
C        13.64121006807336    0.54225602359122    5.57828037078500
C        13.10986079198942    1.00778197504329    6.78310021231603
C        13.50499330860875    0.04679135721293    3.10755245641201
H        14.22879953431073   -0.74227951709313    3.33046721211698
C        11.78743320042330    1.43264214782780    6.79867504881557
H        11.35132449031249    1.79465577220594    7.71747586219228
C        14.26729464763889    1.21325559691479    2.47303439081304
H        13.56572159349348    1.95818185397507    2.11011315629980
H        14.86701026881801    0.86012822112605    1.63607981710395
H        14.91334652159465    1.69398044725721    3.20581026692402
C        11.56467258314365    0.94597995929368    4.46229886850309
H        10.95574718894386    0.94626640526343    3.57366765095455
C        14.25066365369173    2.53043460781488    8.39096331985219
H        14.75277016654005    3.01792312702118    7.54677499012018
H        14.90539280657351    2.58243751327077    9.25722553931105
H        13.33806402288237    3.07705385347561    8.61227860586981
C        11.02190663428529    1.39909130428287    5.65032316773433
H         9.99615205309773    1.73663892007104    5.67729319986221
C        15.29815465550747   -1.34366237799935    5.68088962895682
H        14.76559764149038   -1.94952640467568    4.94627690622706
H        15.00498992771693   -1.68711573913510    6.68112983052834
C        12.49630626505614   -0.52654681575986    2.11268097665878
H        11.86909070287486   -1.28078956966895    2.58376168022962
H        13.02517073760757   -0.98902972282170    1.28160460051145
H        11.86167922639178    0.25711714507029    1.70666440034028
C        13.94702477057165    1.07210483327190    8.03932425324765
H        14.90311456100391    0.57843784881546    7.85162946966560
C        13.26838291968153    0.35585641212625    9.20962063607869
H        12.36318059855617    0.87197875334193    9.51762548862139
H        13.94215457210860    0.31926227141817   10.06290450801688
H        13.00293562993531   -0.66316673636040    8.93438013999346
Si       13.63918349539202    4.84141571644830    4.07918865490762
O        14.49527210454804    3.65492213531750    4.70951957952400
C        12.62342735815464    5.72798675297355    5.42560235874738
C        12.36248069887576    7.09345969868562    5.39581030328670
H        12.76841426768905    7.69312607385436    4.59374593093094
C        11.59996979346636    7.69772321062249    6.38066390112165
H        11.40971338678723    8.76131274635108    6.34070149808390
C        12.09796818698051    4.98621559203741    6.47857840711850
H        12.29844293016768    3.92564984644602    6.50811292181342
C        14.82288913321722    6.10386159243591    3.28799682852865
C        12.40534777105651    4.26141574818409    2.75180451921190
C        11.33577041394160    5.58139503190766    7.46759743469776
H        10.93535956187232    4.98753223176983    8.27831050856582
C        14.38584334452738    7.06101111043228    2.37775999195248
H        13.34299948597995    7.08007726938182    2.09164969599500
C        17.05766872621238    7.00888847871949    3.08231104009685
H        18.09997199549976    6.98161940178451    3.36261784191782
C        15.26224513351480    7.97999258736779    1.82870505674327
H        14.90201221430268    8.71639449987990    1.12362180176549
C        16.60151610531378    7.95644273658727    2.18116018039649
H        17.28822040430581    8.67293023750509    1.75360144789104
C        11.10261553095680    3.92248795031705    3.09668949601631
H        10.79878121697709    3.99652165873229    4.13034385757283
C        12.76673881970211    4.17767594317263    1.41034186161911
H        13.77204678082560    4.44820776428117    1.11864109378893
C        11.08268060124303    6.94236615374498    7.41985074907232
H        10.48801096668946    7.41300269742020    8.19016419400874
C        11.86474720948889    3.75744043301594    0.44850360105271
H        12.16651291548499    3.69899864118728   -0.58810225706713
C        10.57514261941232    3.40942843265074    0.81420434470565
H         9.86906698731759    3.07703842730677    0.06621952178362
C        10.19488237470188    3.49686068070601    2.14268612896550
H         9.18670680609177    3.23491467656068    2.43322704976394
C        16.17057564631532    6.09779322333474    3.62543402222703
H        16.53809296696754    5.35628829404133    4.33483433582315

