96
CSD_code = EYITUD | q = 0 | S = 0 | Stoichiometry = C41H52FeN2 | MND = 3
C        10.15146964732478    9.53412238742840    7.73779088403087
H        11.18670271177322    9.55460456922413    7.40586042968861
H        10.06537934240961   10.19254914559663    8.60016371098295
H         9.52799809367025    9.92694445389011    6.93723177939785
C        10.04505213594707    5.08904675313803   13.22295045110298
H        11.06402843353856    4.71107149688273   13.23453090218554
H         9.49427781201048    4.56539301454331   12.43441819683829
H         9.58551039132404    4.87353108793934   14.18415172312447
C        10.71851690509999    7.37575981135701   14.05941068410541
H        10.18881512162795    7.23530931686760   14.99910768782166
H        10.73767659441628    8.43947489177252   13.82898147067103
H        11.74281142628209    7.03917906437256   14.19551092977130
C         9.92549375598502    7.19731064046560    6.86491258496746
H         9.26671632850906    7.51706301607064    6.06009727319444
H         9.69385899671406    6.16333119681330    7.10853227987309
H        10.94864462258999    7.24064052104971    6.50123778039861
C         3.43545034122003    6.71204940483453    9.03739219582263
H         3.70141923399744    6.46348570109387    8.01234606181759
H         3.34593342396260    7.79371432178868    9.11797034127540
H         2.46505197713859    6.27130636288918    9.24914963298921
C         5.86806653179320    9.54019905019940   14.88179189803043
H         5.56610397300703   10.20893380020015   14.07760557536333
H         6.72329288141009    9.97853888823497   15.39211309845850
H         5.04660545302178    9.47542877587200   15.59055339757513
C         6.57501296866667    7.20720777116979   15.49067145896901
H         5.72603290582934    7.07323454085721   16.15605824537619
H         7.40495077849495    7.60788209861014   16.06920369142583
H         6.86280236879583    6.23325633699925   15.10187135215508
C         4.55810322015351    4.65671150363521    9.98471786511319
H         5.38192426843326    4.31665206359942   10.62383517877911
H         4.71280808217818    4.28683785869607    8.97383871696463
H         3.63481759182332    4.23341544144972   10.37219423177258
Fe        7.43045659804387    4.94586039728336   11.44416538500607
N         8.52193751611064    7.65982883883645   10.68373954675731
N         6.52402334602585    7.60452358343572   11.53769831534121
C         9.89298281065128    7.34748497869714   10.51570066079239
C         7.56797650564449    6.81915531565466   11.16754116379358
C         5.30614637948652    7.22919889984645   12.15657531576978
C         5.11089163604969    7.58148133017090   13.49963929892136
C        10.50848877894462    7.59891274211906    9.28126138744463
C         3.04455271999262    6.44699744063840   12.02000817300544
H         2.24063356538295    5.99366059317154   11.46194103872558
C         6.69149071815944    9.00450399823635   11.16777301726329
H         6.38147413625349    9.67574107222809   11.96980701578361
H         6.08295553202314    9.22750799133230   10.28025494351939
C        11.87108142390852    7.36952503258731    9.15388944206569
H        12.35976311994581    7.56273753488375    8.21138815375896
C        12.61383798665083    6.88801981293740   10.21443676654620
H        13.67216039642449    6.70826417157596   10.09631740386123
C         6.23065712418943    8.15502251885502   14.33953466494120
H         7.12611676475382    8.24898874303496   13.71920896615882
C         8.85699100757787    3.78329333605499    9.82867459367383
C        10.63933653643997    6.86718006953748   11.59852112715828
C        11.99702680094946    6.63375602779979   11.42246141283179
H        12.58323924102978    6.25368578670350   12.24469055567720
C         4.27836495304501    6.64102384533692   11.41381522760021
C         3.86080501930609    7.37764245023293   14.06669579942896
H         3.68991880167816    7.64717545168667   15.09799092268381
C         8.18122870517518    9.07026267847051   10.86409096344628
H         8.40476372759591    9.65652126262108    9.97319955487152
H         8.75593749511634    9.48832159144666   11.70318214813451
C         8.04970447358080    4.92230447395657    9.47136493726935
H         7.13648702298076    4.66618911325359    8.93195940748888
H         8.59729045612417    5.69573434214032    8.95140963189158
C        10.01874347363206    6.59271475713729   12.94636207523772
H         8.96669388218503    6.89344947710142   12.92794085262901
C         5.61880321165089    3.10353632608400   12.98681009545864
C         8.22761521861934    2.59451865212600   10.25485455205527
H         7.15346825057757    2.49626734139754   10.14125636813548
C         6.92240625253985    3.73741122482613   12.99462161199329
H         7.72639004299233    3.02028628344191   13.18044205622871
H         6.96948287862931    4.56167574461577   13.72232998989815
C         9.73047307178799    8.10236838999036    8.08518810386327
H         8.66498431996938    8.09322078149379    8.33328232826680
C         5.44344250547940    1.79700889245372   12.50521967940869
H         6.31164288415545    1.23687405312254   12.18827790711763
C         2.82790928344902    6.83220790196856   13.32812738630849
H         1.85750622411865    6.69226144123224   13.78085783745390
C        10.26332712397605    3.82989536890681    9.87811898771258
H        10.76897172866559    4.72031310184300    9.53511319554816
C         4.50596540309491    6.18607691388652    9.99479626600689
H         5.47972417401384    6.55411760619380    9.65862700856057
C         4.47479521765899    3.78481984994818   13.42524535302949
H         4.58621789249378    4.77972713775925   13.83067551800922
C         8.97332313794607    1.52150762798485   10.71144934430438
H         8.47618797053207    0.61128521089521   11.01877120450714
C        10.99276712602688    2.75747933356575   10.33933333855361
H        12.07246204983235    2.81342990014794   10.36211565786968
C         4.19284349620125    1.22187077472911   12.43519096867368
H         4.08522238640403    0.21389356734127   12.05770245346670
C         3.22521624034449    3.20627761471408   13.35643466407190
H         2.36151432536001    3.75619269602650   13.70491217373914
C         3.07181754769983    1.92374040628874   12.85337535857341
H         2.09266129924877    1.46982698737148   12.80014843036066
C        10.35410038034693    1.59889730609270   10.76645777110980
H        10.93317138195652    0.75875661705072   11.12112281006004

