78
CSD_code = EYITAJ | q = 0 | S = 0 | Stoichiometry = C27H44ClFeN3Si2 | MND = 3
C        -1.15512049308739    3.73841097438071    9.70307787930370
C        -2.88246354751359    4.05061005634572   11.25357920281963
H        -2.71557737239066    4.45364632647066   12.25501159924674
H        -3.91176617677521    4.28117791117313   10.95782650001360
C        -2.55697829841620    2.55952373772987   11.16778690574146
H        -3.39764560467044    1.95985517715144   10.80008613667859
H        -2.23736700367172    2.14819150136111   12.12736760080605
C        -0.91259813088538    1.29663392862497    9.78661478527930
C        -0.11236428960317    0.56458558019973   10.66512843386762
C         0.32973718193439   -0.69045308334152   10.27047884905250
H         0.94933820460973   -1.26263109456247   10.94613310947059
C         0.00961969259469   -1.21697349448765    9.02903212854302
C        -0.74068718241177   -0.44494980009900    8.15165082642784
H        -0.96710995863092   -0.83416098101074    7.16921672839982
C        -1.20179296895057    0.81124380040725    8.50740502983366
C        -2.01536676997863    6.02147718209908   10.00723467450126
C        -2.59799432278586    6.41881609547283    8.80065778380361
C        -2.74428563447999    7.77006170943318    8.53840957814226
H        -3.19976264087412    8.08303971264774    7.60932585752823
C        -2.31299307375938    8.73107371785632    9.44336527916805
C        -1.71396591950141    8.31218039236583   10.62014863105840
H        -1.35251487976263    9.05042219581611   11.32167384805094
C        -1.55388103902014    6.96649626344295   10.92390102199673
C         1.02051267961777    1.39799550192206    5.11311062148992
H         0.12501095641187    0.95953556853274    5.53766095697025
H         1.66270736586384    0.58707831932812    4.78508815242485
H         0.72863546995257    1.96361101256761    4.23442386339485
C         3.65106214034423    2.91558395766681    5.62554788953894
H         3.57053793543298    3.27048039888382    4.60435011441848
H         4.27959635934521    2.03029082272793    5.61789491926560
H         4.16219177360798    3.67891232724219    6.20254590160955
C         2.18650497881483    1.62187613413322    8.03329913808233
H         3.19551023587797    1.76361161517170    8.40370752824752
H         2.00488725335919    0.55598155060308    7.96345747120305
H         1.50616439398625    2.01808250152944    8.79019081735465
C         0.31259920493302    1.14204755471718   11.98005601476996
H        -0.44016248110425    0.97204352559707   12.75067395364529
H         0.48160070293885    2.21348134381260   11.88119309442969
H         1.23623548693269    0.67414724705452   12.31056777219560
C         0.50314120931782   -2.56917459830448    8.61214710237718
H         1.35840363240855   -2.46340230288262    7.94419590820283
H        -0.27158800761083   -3.11449198794138    8.07693493305630
H         0.81520022689464   -3.15337728503036    9.47402602643003
C        -1.95474175927178    1.66151130200531    7.53104841762772
H        -2.83797543222767    2.10217123494214    7.98851045641538
H        -2.26086859937097    1.07949623956841    6.66618078361615
H        -1.30098666996140    2.47507800739399    7.19638960308447
C        -3.01721184038132    5.38720029049155    7.79838644944237
H        -2.13982568990436    4.81658466788143    7.48560584859848
H        -3.46096190221959    5.85745933393985    6.92566327103282
H        -3.74037424150455    4.69494538906646    8.22761660227466
C        -2.49866656001648   10.18783544990074    9.14435415633226
H        -2.23771575912896   10.40407041910065    8.11036911295811
H        -1.88318909949779   10.80047919929194    9.79777785735910
H        -3.54138851029411   10.47053490486955    9.29188791910062
C        -0.86486034786415    6.55223497404474   12.18534616546682
H        -0.16437116141551    5.74564889251630   11.97187663021007
H        -1.58120094107032    6.21341496540758   12.93405324032237
H        -0.31500496178651    7.39018090605029   12.60483600771174
N        -1.94449392814925    4.63620987973532   10.29857848971408
N        -1.46506043612835    2.53298460381375   10.19753264810731
N         1.01297263084153    3.92562119347514    6.77415114013320
Si        1.93676296270336    2.51670426400526    6.36542595782037
Si        0.65055680921373    5.30568824502763    5.79426433698210
Cl        1.26905437770898    4.51939606064108   10.31542272018494
Fe        0.34408822733727    4.02174156606234    8.45579957818752
C         0.29281344618477    6.68681417404156    7.06851061671437
H        -0.57686432527848    7.27886932114321    6.80974445276722
H         1.13657824471339    7.36269142536475    7.15142424981372
H         0.11951380826115    6.26869599586501    8.06493847703961
C         2.04094716619335    5.88020517512954    4.62224289700203
H         2.98161373554923    6.00542264561557    5.14685641528987
H         1.78628684022596    6.83118205451994    4.16463029707524
H         2.19920816047507    5.16323070322886    3.82393952032487
C        -0.87942667115850    4.95826400276797    4.69008005331658
H        -0.59071375703297    4.37689805415923    3.82039880439595
H        -1.32044200842458    5.88257974781135    4.33134992119157
H        -1.65156309691639    4.40116369433324    5.20982233308057

