81
CSD_code = EYIVUF | q = 0 | S = 0 | Stoichiometry = C42H32Cl2N2P2Ru | MND = 6
Ru        1.87559264330345    4.41299647270037    0.83675933583398
P         3.52160735901595    2.86783504057508    0.67056585640657
Cl        3.27980160295215    6.20836952322647    0.18988238353233
P         2.00356461466934    5.09031947612806    2.99527936527322
Cl        1.59134312705652    3.64162928583370   -1.41956075116131
N         0.37320443368833    5.82205784267851    0.73656846091051
N         0.70500188539743    2.86423844060219    1.32192334269194
C         3.38977216797908    5.72522719391348    3.98243555813916
C         4.53838346593905    2.52273398170430   -0.79477071740396
C         4.07142854032056    6.82483533670049    3.46221989211386
H         3.77577903954136    7.22061685822607    2.49884240466356
C        -1.32756368971811    8.02506390653920    0.38744624875483
H        -1.97416532789405    8.87969051091260    0.25500791094262
C         0.91035018236211    6.54149726669386    2.95869253369056
C         1.18834446666085    1.58548530813244    1.26419705740473
C         4.77028375747676    2.83977621082500    2.00029495667449
C         4.06172879120940    1.68893703449430   -1.80360696139753
H         3.09367188773723    1.21877739892152   -1.70446559185860
C         0.36435263589933    0.46221274474272    1.54395560455132
C         0.20819920625865    6.72502485581500    1.74553317266698
C         1.16749397862142    3.92736259157787    4.11954878282398
C        -1.14128282912534    7.10094502479571   -0.60565186228363
H        -1.63500556986065    7.19261002407138   -1.56004257954373
C         5.76259940039755    3.16534778782386   -0.95251370360181
H         6.12637988141092    3.83223541188662   -0.18450422877707
C         2.53914472226261    1.36344848148603    0.91168874411986
C        -0.76174481024449    8.75184060647069    2.68757963480475
H        -1.41026293704168    9.60805594089056    2.57223405011330
C         4.84867103188387    5.72236640868461    5.88524199370213
H         5.15401553589874    5.29202243607268    6.82812871504360
C         5.42153666320863    4.05321414024504    2.21744617563554
H         5.13954650809515    4.91528931948797    1.62326808676834
C        -0.56482652419337    3.02621071319234    1.66494154145659
H        -0.93451089134768    4.04388023404004    1.70414773387337
C         3.78515373210536    5.16965848149944    5.19345355157584
H         3.26384068565512    4.31340421917489    5.59739005878199
C        -0.28501044338133    6.01542185165551   -0.38919423618255
H        -0.12917064926535    5.28205773133853   -1.17359293045780
C         6.50778688159315    2.96047632574909   -2.09952218823597
H         7.45492028597771    3.46627059030181   -2.21916079249303
C         2.21074532155566   -1.01965447485649    1.04359338404013
H         2.61094920672850   -2.01762356412992    0.94157865257564
C         6.70436094359474    3.05741112019390    3.97858834235916
H         7.45860870863248    3.13737903352910    4.74768416818257
C        -0.06353498949752    8.55508121104001    3.84925397137304
H        -0.15586609838636    9.25622080982132    4.66530038603512
C         6.03824735425682    2.12034456838494   -3.09501749532316
H         6.61998617565663    1.96631027564423   -3.99222377784392
C         5.13017984783028    7.37039359783739    4.16197856271985
H         5.65753223770266    8.22264155919073    3.75934047863966
C        -1.42813139152698    1.97981169099959    1.97888993780081
H        -2.44607929722704    2.20609559580427    2.25475257576932
C         4.81480493513398    1.48792305603223   -2.94486570673411
H         4.43846843309274    0.84339749510835   -3.72598539722273
C        -0.97512086438533    0.68657890814228    1.91894533501466
H        -1.61774685501786   -0.15150631672533    2.14030059761432
C         1.75617250132489    2.66896130959858    4.24221203711273
H         2.70859798490617    2.48709290192759    3.75722962089225
C         5.51789257686132    6.82225091664947    5.37543389699721
H         6.34574723031150    7.24980309761320    5.92247267099258
C         6.03837955110929    1.85861873861002    3.78601264109981
H         6.26967350959379    1.00559560729249    4.40812114859893
C        -0.68515007839585    3.16607643274889    5.44319201315012
H        -1.64051396656450    3.35799397583143    5.90974178664089
C        -0.64441263808927    7.85158703109757    1.60941862249444
C         6.39652038338048    4.15515418522430    3.19172458995304
H         6.90710411894065    5.09400684990769    3.34599401913928
C         3.03171676901956    0.08113029016803    0.78584973215436
H         4.05672363662303   -0.06794600892909    0.47511966894267
C         5.07792765146047    1.74302093381467    2.79573149822611
H         4.56300926752767    0.80314833419711    2.65264143201797
C         0.90971591557700   -0.83220231595144    1.42962642511514
H         0.27097084074215   -1.67692927750350    1.64261955701520
C         0.78047561869239    7.44812919463203    3.98707772718962
H         1.33925845411480    7.30182537262627    4.90114833945772
C         1.12966731195207    1.67146988404590    4.96219028740941
H         1.59002994144983    0.69796934162956    5.04935864794940
C        -0.06074606398733    4.16932396493370    4.72097897003643
H        -0.52922080788170    5.13904075163786    4.62300959005176
C        -0.09629867536581    1.91902623952158    5.56132521513697
H        -0.59280014391885    1.13770467288978    6.11736923768947

