78
CSD_code = EYIVIT | q = 0 | S = 0 | Stoichiometry = C35H40FeN2 | MND = 3
C         1.27297143449884   17.28311985296105    1.17624134991159
C         1.87532494563817   18.22977404626295    2.00879379054382
C         2.16839790350606   19.48198127131158    1.49531103801332
H         2.63694660928918   20.21646489131177    2.13490998284354
C         1.86537765431497   19.81909837985226    0.18307594809155
C         1.26232569109319   18.86654841831609   -0.62296170192055
H         1.02645955161858   19.10989595785296   -1.64947515197191
C         0.96046179632543   17.59887034853036   -0.14673552054576
C         2.17887294081735   17.88792790743987    3.43237681201801
H         2.76884772053034   16.97029716028168    3.47570122611669
H         1.25865900772386   17.72101689965934    3.99230398464646
H         2.73179262009087   18.68879560179239    3.91290996880879
C         2.20905697305899   21.17559695889641   -0.35357364808325
H         3.25127679095062   21.19487014931035   -0.67343316485729
H         2.07981745760005   21.93831869386728    0.41122098947736
H         1.58778142835831   21.42489250854963   -1.21037312269698
C         0.33478686330480   16.58809407224665   -1.06304728258580
H         0.70913465195545   16.71810924544340   -2.07623498326077
H        -0.74872087251208   16.71274968623119   -1.09176689318367
H         0.56120263429325   15.57693941682284   -0.73245492436038
C         1.73226322844636   15.11561208799252    2.27981408542888
C        -0.49777292833133   15.83276255640438    2.03409409957983
H        -1.11767223587188   15.83521671139635    1.13521059554174
H        -0.84016535852773   16.64771278660340    2.68457860479331
C         4.73786280396161   13.57169383207399    3.66864606882558
H         4.36042246212487   12.66384265856260    4.13750323101287
H         5.72553255070120   13.40283385073243    3.24311599833307
C         4.64145220018956   14.75367962524814    4.48539134504849
C         3.90068564182322   14.80391210887015    5.68157822104555
H         3.45543700708563   13.89094981614838    6.04995258090531
C         3.78401474666725   15.97343911486578    6.39812959271972
H         3.22778394068917   15.98290991914610    7.32591549368791
C         4.39325947864122   17.14067540590240    5.95280540193057
H         4.31309186663673   18.04966493384573    6.53094696316433
C         5.11462979301360   17.12386088034106    4.77067793538920
H         5.59613798659460   18.02683265793486    4.42064006448640
C         5.22745791991812   15.95824743820408    4.03591125677767
H         5.84818299953922   15.94497616402750    3.14678603708069
N         0.91291793073217   16.01997293258735    1.70132683476529
Fe        3.55932870213905   14.57872043338622    2.32097487381079
C         1.32033570025163   13.10612556720264    3.68525945892627
C         1.88640083188870   12.01325431168070    3.01985067588461
C         2.17423884245129   10.86391356482429    3.73933430758769
H         2.61241709486113   10.01981624091609    3.22587494536867
C         1.91572744556195   10.77268797507824    5.09973608938719
C         1.37177550801709   11.87310728060133    5.74369590505472
H         1.18252285814450   11.82571313657307    6.80720280402534
C         1.07228566041958   13.04268990805372    5.05953481261156
C         2.21244517778936   12.08889763668949    1.56105925251723
H         3.19765380857302   12.55697705659197    1.43047519101470
H         1.48253315855189   12.68250081543832    1.01552394200773
H         2.26100046893231   11.09584374874354    1.12277977220737
C         2.25271747075063    9.52475633753853    5.85786442085126
H         3.30520028421607    9.53593132186923    6.14316186145847
H         2.08219733894724    8.64241677976013    5.24496545090859
H         1.65764397748937    9.44675521750944    6.76453860976912
C         0.51714252701973   14.21833379757352    5.80789963432024
H         0.88666011560754   14.21937984486384    6.83037391984005
H        -0.57224461599153   14.17330529860207    5.85272625282582
H         0.81455193317463   15.14909303464606    5.33080423519015
C        -0.49455055857172   14.48659856149245    2.74686097741881
H        -1.05340904068218   14.49940429564345    3.68380455417105
H        -0.90553657784243   13.68525226652344    2.11787152640159
N         0.92824335296372   14.26022238117070    2.96867421119478
C         3.74300432590222   15.63315911351750    0.56265968024899
H         2.97495690839227   16.05103514023273   -0.07082938656969
H         4.41829463891244   16.41426392885088    0.92119699980977
C         4.38798690430543   14.48043007374429   -0.00163107260014
C         3.76979931361118   13.68117438620977   -0.98551351390938
H         2.83528620172580   14.01740526248967   -1.41303258800694
C         4.33860755610787   12.50309565648532   -1.40908553599398
H         3.84903582124755   11.91025050995863   -2.16979219755868
C         5.54580009499414   12.06784961474458   -0.87143986793816
H         5.98788130018478   11.14178102839153   -1.20849000068905
C         6.18886121016794   12.84582045452987    0.07478986378854
H         7.14335137861886   12.52791449012627    0.47251963093364
C         5.62685015757210   14.03561662579539    0.50418678442130
H         6.18540688694496   14.68434995421763    1.16730041170821

