57
CSD_code = EYIYER | q = 0 | S = 0 | Stoichiometry = C21H28IrNO6 | MND = 6
Ir       -3.84855899506102   14.70119580148496   12.77560472007443
N        -2.90825288742222   13.28623953308400   11.50547314972982
O        -5.34957922376324   13.35138327537843   13.14845798641580
O        -4.89465895114425   15.42893180486791   11.16122605979917
O        -2.29911098163700   15.99301004654819   12.35417572779948
O        -2.79567515876853   13.95447442328602   14.36845648900590
O        -3.22067002093897   16.66678762702659   15.68665987806954
O        -7.02928854277853   15.45375141132117   14.62036069566207
C        -6.49747536959842   13.39769628746887   12.62718340889580
C        -7.53712705046202   12.49586583669975   13.24338575926003
H        -7.05578045433680   11.69731195707877   13.80113167266203
H        -8.20848291903418   12.08647919518542   12.49469776699652
H        -8.11087591100812   13.10767612371220   13.93871871594840
C        -6.89602693397010   14.19804587451967   11.55348365944994
H        -7.91763562285479   14.10632385690025   11.22124562279647
C        -6.09585465487967   15.13301737218724   10.90066067831964
C        -6.72194323939545   15.88594963938266    9.74584417254818
H        -7.52280772626214   16.51742373904457   10.12347673343088
H        -7.14402713124836   15.19287462182072    9.02268193809848
H        -5.97284282901999   16.50889799688622    9.26547905677733
C        -1.23292729572948   16.08654443611201   13.02810336678745
C        -0.22863563590039   17.10431788253804   12.52943947072585
H        -0.56794449022705   17.52286840654083   11.58610129622324
H         0.74656877192137   16.64235484955802   12.39759530392127
H        -0.13343888053142   17.90372161759241   13.26043985067554
C        -0.89625985192569   15.37329563024070   14.17452214529021
H         0.03474924045933   15.62464528102029   14.65681556771507
C        -1.70366509759273   14.41557997888252   14.79591690437110
C        -1.22603462479501   13.86301063012532   16.11663153039678
H        -1.47886032154672   14.59381249424191   16.88274659826455
H        -0.15096488046546   13.70986248978552   16.11783652828963
H        -1.74086419338897   12.93282807694199   16.34031937033767
C        -4.86561190261169   16.14732948314261   14.01165769365044
H        -5.43137733506939   16.75931408014100   13.30089216909160
C        -3.83399990128282   16.96850085080372   14.67705778501917
C        -3.60242356341973   18.31165574207277   14.00977363858028
H        -4.47498437428288   18.93998612731571   14.18063619096709
H        -3.47453648406518   18.18075623915384   12.93942111900331
H        -2.72774506224014   18.79548206054016   14.43822107448132
C        -5.83748788015546   15.42896748049761   14.88208633186552
C        -5.30977019742193   14.70243270797889   16.08439001474207
H        -4.66858751146631   15.36630295197575   16.65930533949375
H        -4.69741915155575   13.87092331984996   15.74529525155783
H        -6.13453275056773   14.33737731092360   16.69168709672997
C        -2.43205694611247   13.65388639595638   10.32060680903553
H        -2.54849729105309   14.69783623869286   10.06829844705231
C        -1.82314129916266   12.76398851382324    9.45813301225513
H        -1.44972541612718   13.10636441779439    8.50520592631790
C        -1.69474828454459   11.42634629855272    9.82581279461976
C        -2.20110545463004   11.06048739119369   11.06842312542618
H        -2.13244050043678   10.03907799084909   11.40991167892478
C        -2.79660772780874   12.01524465493273   11.87203735720109
H        -3.20082864884365   11.76431344376385   12.84192766873400
C        -1.04920678180791   10.43657083203647    8.91277654992672
H        -0.91143730097325    9.47902403372008    9.40751906654443
H        -0.08191296413491   10.80503763241430    8.57602775625939
H        -1.67036340710094   10.28561560391202    8.03032427760233

