61
CSD_code = EYIZIX | q = 0 | S = 0 | Stoichiometry = C26H22Br2N6O4Zn | MND = 4
C        -0.06364693726686   -1.92006187232875   10.06331565040745
H        -1.09993561171429   -2.22450422042319   10.01563072551855
C         0.38355796975912   -1.09031153736551   11.07349175233979
H        -0.29312732849638   -0.71343437253166   11.82352808587589
C         1.73146332344780   -0.74586784963736   11.11966233209582
C         2.56273195513412   -1.22867872029547   10.11302804382836
H         3.60814447652122   -0.96552484501262   10.06499513113703
C         2.02173268592552   -2.04251816471215    9.13455931893966
H         2.64303262697998   -2.43560826188450    8.34163942785624
C         2.20221778609316    0.17256328071675   12.21002746612658
C         5.13934333429349    0.20128246709277   14.13340002515567
H         5.65080820353491   -0.69731054185093   13.75896576579145
C         5.79679820056812    0.94077001484726   15.18309358816201
C         5.21690481043213    2.09610484760043   15.71507160474303
H         4.26809837144080    2.42310314986248   15.32140991285412
C         5.84777906885129    2.79562378707070   16.71913024046643
H         5.39427992480040    3.68931443307671   17.12750459082719
C         7.07416113613945    2.35750174803339   17.21728903028406
C         7.66000264295944    1.20659933350410   16.69150857325842
H         8.60863370632338    0.88217325558138   17.08823233479653
C         7.02682885041155    0.50952476294776   15.68703611073414
H         7.48722826302249   -0.38164671270939   15.28540195278635
N         0.73969167031685   -2.39463300251720    9.11430664137566
N         3.44294250751753   -0.14631823243868   12.68384857620615
H         3.91891403583579   -0.98551694241627   12.33988204791070
N         4.01663814348334    0.57103084636962   13.66439025889730
O         1.52875783042815    1.08958975435932   12.61292609613361
O         7.72750099024857    3.01360059265099   18.20484080988320
H         7.22088517130346    3.78669242092744   18.48408448367184
Br        2.00162258073128   -4.59274177178155    6.65147839837827
Zn        0.00013115960536   -3.83090334824880    7.63624767084426
C         0.06398381554183   -1.92127658514559    5.20816482494235
H         1.10019055569223   -2.22602892455053    5.25565907489309
C        -0.38337500923973   -1.09197425804907    4.19766673990121
H         0.29327188457553   -0.71526165045300    3.44750877186515
C        -1.73115607734095   -0.74685372297247    4.15203492498723
C        -2.56209613340366   -1.22864751160647    5.15937318564729
H        -3.60741871054663   -0.96516047483799    5.20760631680375
C        -2.02093526485312   -2.04192281937127    6.13818231274999
H        -2.64230872688739   -2.43524749030641    6.93094099989738
C        -2.20222996381151    0.17236071664166    3.06246787271056
C        -5.13868403151520    0.20012198540938    1.13807608361583
H        -5.65127816448036   -0.69711087895310    1.51418560780350
C        -5.79700233214373    0.94064756375815    0.08964340405230
C        -5.21712931309037    2.09603574704757   -0.44231401051481
H        -4.26782422339436    2.42239351327196   -0.04944380973384
C        -5.84809860239885    2.79566379750148   -1.44624841219791
H        -5.39449224454042    3.68913551835378   -1.85479963193602
C        -7.07477686030644    2.35786325627486   -1.94399107072564
C        -7.66077478217142    1.20712555771688   -1.41797455605953
H        -8.60970625933977    0.88299175315688   -1.81429390903650
C        -7.02747244768558    0.50990593410975   -0.41368105329703
H        -7.48782962721080   -0.38136270102228   -0.01213696287950
N        -0.73913003507606   -2.39492723946670    6.15780801410724
N        -3.44281909276858   -0.14669533780626    2.58841349840682
H        -3.91890037109936   -0.98570299754766    2.93264110411154
N        -4.01607526356509    0.57000882151904    1.60718307630244
O        -1.52811423219361    1.08835596410958    2.65855557915892
O        -7.72854051565971    3.01436395142719   -2.93097990026287
H        -7.22195047608078    3.78748138078036   -3.21022654267082
Br       -2.00144904354500   -4.59207716757737    8.62135181989286

