100
CSD_code = EYOCAY | q = 0 | S = 0 | Stoichiometry = C39H56ClFeN3 | MND = 3
Fe        9.18651165810031    4.10800999154214    0.74101052072974
C         9.41936928737784    4.98047375387450   -1.02696836867181
C        10.98015705687933    5.69984352595438   -2.64791312989048
H        11.45866037078645    5.05619740905266   -3.39363245818095
H        11.65227783003398    6.54302807730641   -2.45205783962350
C         9.57817892858260    6.14434806838934   -3.05993265890400
H         9.49036905709932    7.22747382624708   -3.17778731955680
H         9.24461680072308    5.67319651838489   -3.99130941784759
C        11.80377283228138    4.58512747547374   -0.58295266796102
C        12.31015619942460    5.51699062750925    0.33223196985630
C        13.43414480778010    5.16676432008341    1.06939929986558
H        13.84397958104260    5.86202335682022    1.78579956396686
C        14.03788485661912    3.93522564716798    0.89872950778789
H        14.91687482995621    3.68346574453375    1.47300625609421
C        13.51615988233942    3.01812521488382    0.00482325865705
H        13.98969427709921    2.05547832677591   -0.09831950142311
C        12.39925900827317    3.32940084254259   -0.75599540494004
C        11.78902211555572    2.33743648589511   -1.71830249540431
H        11.30581799687274    2.89526367947848   -2.52626533244316
C        12.81195788946194    1.39279181004808   -2.34780854992752
H        13.65445072499082    1.94851536267395   -2.75407856925887
H        12.34538391992238    0.83492463933391   -3.15681122917038
H        13.18300077736573    0.67474056894439   -1.62131088793621
C        10.70289907305799    1.54553691992957   -0.98567793878959
H        11.12645931478387    1.00271338293747   -0.14382665830348
H        10.22950751717013    0.83549107281904   -1.65941053095499
H         9.94038848082112    2.23187878434600   -0.60173807184048
C        11.64674200935046    6.85979718178861    0.53925700888250
H        10.93604388440015    7.03657217244625   -0.27170659514600
C        10.84443077001949    6.85157644248321    1.84353644131348
H        10.01397200677525    6.13999650197167    1.77053688179514
H        10.42242771520763    7.83618525200052    2.02913549272112
H        11.47533742007118    6.57862166666115    2.68667062442364
C        12.66077322369406    8.00605262192370    0.53117219935755
H        13.29078643571677    7.98342372415966    1.41632156373237
H        12.13837279063142    8.96009385770353    0.51708855064401
H        13.30091069118522    7.94961362655568   -0.34748557409647
C         7.35075639438628    5.90539637166764   -2.03488364618825
C         6.53445553334000    4.90097971269952   -2.55871272270778
C         5.17662914982112    5.15438744249843   -2.68964852919117
H         4.52170131825716    4.38634588421113   -3.07128217087862
C         4.65077204262621    6.38103765579941   -2.33511935221641
H         3.59211556899001    6.56522565783797   -2.44575621774214
C         5.47371641687091    7.36908247771360   -1.83132702507849
H         5.04874269894510    8.32042006710089   -1.55107109414778
C         6.83393668883882    7.15006599200982   -1.66844956154806
C         7.71269894956937    8.23644346246070   -1.09529294411798
H         8.72254102386854    7.83688567873173   -0.96615967937148
C         7.21749925062026    8.65890793319078    0.28832393469565
H         7.92060861578796    9.35664976096467    0.73954234495527
H         7.12914500202807    7.77984070556851    0.92070527851068
H         6.24688004962221    9.14326474323153    0.22719463765429
C         7.77437404392092    9.43941704160003   -2.04141498995056
H         8.12055040381748    9.14568487800056   -3.03165715386962
H         8.45293571303759   10.19364761800950   -1.64739302304290
H         6.79079658055105    9.88939272933608   -2.15069990229395
C         7.10382388589141    3.55056032808002   -2.92314241617881
H         8.19610162528522    3.61557931916732   -2.93523042497531
C         6.71829745397459    2.54833481896469   -1.83522432407100
H         7.03702979667610    2.93490887387225   -0.86687891733826
H         7.19732567745794    1.58840326352677   -2.01404389563299
H         5.64049915074189    2.40719429933820   -1.81052983886923
C         6.64753422180857    3.07585970424794   -4.30346927179269
H         5.58224303054461    2.86272161777086   -4.31500319864212
H         7.17554994556589    2.16365852440671   -4.57446346147904
H         6.85335092317924    3.83243118153899   -5.05852101245212
C        10.15271776445826    2.02273813389318    2.62084105515327
C        11.25911767588593    1.72379970386450    3.45271530461352
C        11.32642403583041    0.48617747556862    4.07022489599607
H        12.15650142730345    0.25655805968688    4.71926849856254
C        10.34722152465527   -0.46933289485961    3.87982284149046
H        10.42010941679349   -1.42832196546239    4.37108668734711
C         9.26890186611451   -0.18237272246578    3.06392739451296
H         8.49975849651840   -0.92702605482077    2.93342376200960
C         9.15619136504059    1.04043675010749    2.42757763419034
C         7.92769403473194    1.35945401055507    1.60842905282383
H         8.19747244330319    2.13409616568440    0.86713326994648
C         7.37928085029989    0.15864416755706    0.84090744220651
H         8.17106606575178   -0.33354060307368    0.28033044667842
H         6.61056638749628    0.48732986219938    0.14639052039118
H         6.92731812640426   -0.56442946793020    1.51516114038480
C         6.85196535654359    1.94896674257530    2.52560193836413
H         6.60028027582447    1.24522417337454    3.31663875228975
H         5.95458613118586    2.17924739832370    1.95653948616674
H         7.21080312272448    2.87118986292304    2.97774809135128
C        12.33350164066592    2.76042929886469    3.71673941818311
H        12.46244603780468    3.36899427870287    2.81385073199217
C        11.89885475114802    3.67086444201135    4.87258693232547
H        10.93470263869445    4.13341204725723    4.66956706641353
H        12.63386448860580    4.45740564602119    5.03681813826890
H        11.80476177324874    3.08893391518199    5.78716851725238
C        13.70580522319609    2.15792358884014    4.01998694196277
H        13.72868375765861    1.68763651979018    4.99969438358643
H        14.45661031036011    2.94620083651461    4.01485082990509
H        13.97402387647189    1.41941973014435    3.26783762935597
N         8.74946204641164    5.68080980150544   -1.94631498398568
N        10.71586096539629    4.95329946487770   -1.42010767684399
N        10.01983602165868    3.25699722764427    2.02087190943361
Cl        7.37934962935404    5.22326280889769    0.97734870738550
H        10.70539729499153    3.90274537182203    2.42181387869467

