128
CSD_code = EYOCEC | q = 0 | S = 0 | Stoichiometry = C51H72FeN4 | MND = 3
Fe        7.40647033949413    6.79363393687036    2.19962961221905
N         8.91394005578115    6.61374772068539    2.68835978938781
N         5.93460755797772    6.55426742137618    1.63789366049323
N         7.86606125324425   10.30842525761587    2.75628176793150
N         5.79974501808292    9.89525685498260    3.14127655597228
C        10.13023909902613    6.16009787411987    3.04476999631775
C        10.31163950724159    5.42409388216927    4.24746364866701
C        11.58351778677469    5.03882486477633    4.62800568239111
H        11.71804445792633    4.48552550444681    5.54597588147877
C        12.68762156696883    5.33393780915759    3.85134434289625
H        13.67590665371302    5.03837389522954    4.17202108649292
C        12.51027150679462    5.96952379655147    2.63374559375214
H        13.37228961457506    6.13879567135556    2.00771930519726
C        11.26117388576349    6.37415560908269    2.20852232525800
C         9.25660284147332    5.26212075332493    6.54583428780783
H         8.32201995089143    5.03982315892863    7.05743891036373
H         9.50755749391384    6.30666523739568    6.71274546960501
H        10.03655930459237    4.64929485809675    6.99158775843716
C         9.11702983325969    4.97187598334689    5.05169203219568
H         8.23472358039640    5.50370922991389    4.66901887534293
C         8.90090109811049    3.47251955434175    4.82056807404169
H         8.02871779378013    3.12340312090031    5.36953462154548
H         9.76858475581697    2.90640905316080    5.15334608966427
H         8.74643100203977    3.27306225480920    3.76230505975099
C        10.35882844789147    5.90026045328054   -0.04308399372725
H        10.17348083621290    6.29030448688358   -1.04159158784703
H         9.40464611705383    5.60206746829177    0.39640669757227
H        10.99463198117467    5.02035661255596   -0.12482017189341
C        11.03254219017399    6.96097383631286    0.83713904587176
H        10.33811874730817    7.80051365360912    0.95568986548252
C        12.29884801201223    7.46149113374691    0.14926039431855
H        12.03340830666432    8.00233607834004   -0.75709200956119
H        12.94112078185150    6.63023668574563   -0.13461927479483
H        12.85349484316627    8.13355232374528    0.79816665327382
C         4.82830152527856    5.97160049121299    1.14756287422780
C         4.55064142286778    6.00383414882551   -0.24636634848856
C         3.42788902018352    5.36303649876702   -0.73312365993338
H         3.21852452657480    5.37580564111162   -1.79175509348208
C         2.55999557364264    4.69856902049650    0.11547551018924
H         1.68347308492213    4.20753179188296   -0.28137279542735
C         2.83040701734410    4.64837559185290    1.47265290530053
H         2.15605474740618    4.10508396040174    2.11629845361268
C         3.94367325610337    5.26579074750367    2.00707226669400
C         6.73053140297163    5.74269187063363   -1.38549177400053
H         7.47818291536928    6.21131190029140   -2.02184654900571
H         6.39236041840996    4.82325027049245   -1.85987251204091
H         7.19380702159641    5.49260582034413   -0.42773348508053
C         5.54590580872315    6.68732167508168   -1.15328504364228
H         5.91728865058218    7.56646130075005   -0.61195878950491
C         4.96882842815072    7.14275653833878   -2.49147968180621
H         5.69201621561649    7.77132012948894   -3.00865103636137
H         4.05484633096538    7.71427920458419   -2.34874190073379
H         4.75195202418682    6.29182044667724   -3.13332139949651
C         5.43365712486377    4.14948705386016    3.65388292563006
H         6.32620902442366    4.47723373874620    3.10791284224399
H         5.13306822372987    3.17340105218254    3.27723082716232
H         5.68929276534679    4.05422182291468    4.70703643577742
C         4.29821100089251    5.16512739083236    3.47095322642467
H         4.67293515009878    6.14994486027816    3.77607293424468
C         3.12430965246901    4.78886612658507    4.37076249398276
H         3.40958724820400    4.90791375472417    5.41441116180272
H         2.83451666755310    3.75086952848366    4.22080211120010
H         2.26767589692264    5.42802127528489    4.17478322631181
C         6.96346386391444    9.32856301344978    2.80593208318275
C         5.87715468953278   11.34846321929608    3.36816551468948
H         5.59143035503298   11.58167631207222    4.39915177274643
H         5.19604622522912   11.87498239789648    2.69646013457615
C         7.33914009196317   11.64492888139532    3.07189028555124
H         7.47521824000140   12.31284312819177    2.21534599838091
H         7.87489588568291   12.07019370816601    3.92500383677891
C         9.22009908700337   10.26381514312648    2.34144349001010
C         9.51629308751985   10.41219632174749    0.98274832379341
C        10.84609380243044   10.53036985625761    0.60500204425486
H        11.10039322811534   10.65232578970882   -0.43629717428386
C        11.85402424885156   10.50362624455162    1.55008190851724
H        12.88281437506490   10.62155856608680    1.24250551308482
C        11.54894586996329   10.33080833501542    2.88542605940784
H        12.34618863155711   10.29889073145425    3.61195405880139
C        10.23044826424462   10.21751802916315    3.30480101140681
C         8.37482697147724    9.05251833025466   -0.74460294512802
H         7.60231061500769    9.04440143887784   -1.51018341590710
H         8.15301450402900    8.27026192283539   -0.00639046091323
H         9.33096063221318    8.83254479332913   -1.21376224912283
C         8.41655491020738   10.41629663077955   -0.05275281322574
H         7.45560627110789   10.55481386832178    0.45094277390332
C         8.58075947122235   11.54425297207895   -1.07346950109484
H         7.69360546702508   11.60806370953272   -1.70020982734039
H         9.43586569015960   11.37043122869781   -1.72118690155538
H         8.71883116948404   12.50072138001589   -0.57260023424896
C        10.57101282800636    8.84675853735685    5.37334602140755
H        10.30204696153237    8.75339587986849    6.42397389502006
H        11.65425880333671    8.90128347879577    5.30362223296800
H        10.24081105039575    7.95784079962827    4.84405344778817
C         9.90993227586386   10.08719669508946    4.77469538323288
H         8.82849406321204    9.96502917983939    4.88613571316583
C        10.34550415193350   11.34578690550781    5.53225944382578
H        10.02827863687855   11.28765715752430    6.57149425980054
H         9.91307461947972   12.24108399508188    5.08831368913575
H        11.42742146396862   11.45009006544803    5.51161960607467
C         4.59566677051415    9.25672259632169    3.53578953360328
C         3.48766846041432    9.26746177240045    2.68411617518345
C         2.30240924098985    8.70061472593808    3.13284924229026
H         1.43607003812859    8.69519530682301    2.49035810429592
C         2.21186645266597    8.15229379180138    4.39617964396800
H         1.27863288836001    7.72516124850372    4.73327456014558
C         3.30669246140289    8.16876077197565    5.23859767579910
H         3.21928047918469    7.74678114563473    6.22730198540653
C         4.50754221415742    8.73078789591205    4.83014902908231
C         2.74761445472375   11.25221866860895    1.37730294137822
H         2.85592475213939   11.78967836561525    0.43737613364117
H         3.08661051298261   11.89564677038007    2.18699994882653
H         1.69092030624336   11.04935134187243    1.53590730905584
C         3.53617574343084    9.93715818012391    1.33123000393188
H         4.58194141213985   10.15009318982420    1.08890447197101
C         2.97608953211608    9.04592686012856    0.22413032834306
H         3.44636802973838    8.06778543152798    0.25017389222431
H         3.16496686353571    9.50263480327783   -0.74542648263353
H         1.90234902013069    8.91223466132117    0.32818421650483
C         5.30505743110608    9.16180297796096    7.19124946960861
H         6.20146116614063    9.35528059462521    7.77692693844985
H         4.75184219595986    8.36638336116349    7.68323618866760
H         4.69111899582984   10.06050149434262    7.19221144114300
C         5.69462979389132    8.77122509610085    5.76401656281685
H         6.40400458455301    9.51960898227664    5.39954049175939
C         6.40806330017170    7.42013662860464    5.74396542821276
H         7.28084336742626    7.44590570134519    6.39111392561208
H         6.73425129543119    7.19568897298405    4.71945794135517
H         5.74189936736581    6.63060032827254    6.08422374905965

