34
CSD_code = EYOGUW | q = 0 | S = 0 | Stoichiometry = C13H17FeNOSe | MND = 8
Fe       -0.12513020154586    2.19534530359318    5.24043723879445
C        -0.55557616443039    1.81681109385027    3.11262926435036
H        -1.30044826296414    2.27958813157227    2.48303948227060
C        -0.69984388243247    0.56868281056813    3.77005075485933
H        -1.58254192349455   -0.04737711811570    3.76487707812261
C         0.54655962451409    0.22338983369578    4.31570119996398
H         0.77609888011793   -0.68949697944947    4.84022107221777
C         1.46689507157922    1.25949298862465    4.02361742727838
H         2.52550679158484    1.23329779901430    4.21942345705634
C         0.78991509500931    2.23219580133726    3.25619520468248
H         1.24402061185508    3.08583038589723    2.77846293859704
C        -1.67656440151097    2.73909710444187    5.80067539109725
O        -2.71037089745535    3.09828598343333    6.15355245636224
C         0.65182121883097    3.89964179579292    5.65355632830487
C         1.85842254510438    3.80821119514818    6.42040118741425
C         1.98117766098761    2.74610310531289    7.27676310063667
Se        0.57007337392324    1.51500739167364    7.32717696507436
N         0.18402707378948    5.08424414066398    5.28242451853573
C        -0.87912219280147    5.22100328002598    4.31595702617627
H        -1.02086988453181    4.28066888280967    3.79089924564992
H        -0.61708236248529    6.00515631849946    3.60228318703959
H        -1.81720663585473    5.49424038839515    4.80449115876262
C         0.50217508412654    6.34104627673589    5.92898341490417
H         1.02415339913428    6.16481859221831    6.86390460574533
H        -0.43058045945582    6.86451770961902    6.15068923063293
H         1.10758277024413    6.98378040332560    5.28438466174181
C         3.01698691206365    4.75901782334552    6.24348873523195
H         3.16864059979720    5.39929845867178    7.11337614215921
H         2.87945632427265    5.38140513626233    5.36439400552493
H         3.93077190673553    4.18166164788745    6.10449445514586
C         3.15177696190728    2.55695071420752    8.18359559761205
H         4.03609001379956    2.28842556224140    7.60365809373977
H         2.94736265930787    1.75807718667453    8.89278612955103
H         3.37602269027774    3.47328085202545    8.72890924476393

