47
CSD_code = EYOJAD | q = 0 | S = 0 | Stoichiometry = C14H24HgN4O4 | MND = 2
Hg        0.00126884126666    8.06460834404481    4.10286816061722
C         2.19673049359466    7.79310428221474    3.94159180836370
N         3.40651799967027    8.14829871122701    4.37339462227604
O         3.69694514357036    9.05231912936697    5.19313827861205
C         4.46812783036083    7.39914504348934    3.64069012310806
C         5.03597146183698    8.38744942076281    2.61690212605761
H         4.26495820606899    8.72646354704163    1.92846860494714
H         5.85010259277983    7.93864300861121    2.05508707505652
H         5.41648769467535    9.25582478772600    3.15121701144847
C         5.56478437534625    6.99841285132639    4.61790345201310
H         5.18513216663631    6.36760741580409    5.41542005116722
H         5.96905984851917    7.90069086743285    5.07123710840041
H         6.36203478136437    6.47685470961897    4.09543982102681
C         3.65908845449520    6.23652588302445    3.00714380794189
C         4.00139684234447    5.89219531195935    1.56213200577467
H         3.91615575631729    6.75525986320009    0.90956059620971
H         3.29997443352193    5.13913758632000    1.21110028345338
H         5.01015763337411    5.49322013012949    1.50070368848833
C         3.65743276430021    4.95247432250782    3.84620372254516
H         3.36672387081751    5.15794316764610    4.87396786258194
H         4.63497249596559    4.47927396545687    3.83097946252059
H         2.92670130269024    4.26637843550272    3.42335056286324
N         2.29545116405289    6.77703059229082    3.08619556886035
O         1.29370665364255    6.24309965595293    2.50126470722970
C        -2.19377602871573    7.79042869878174    4.26324080631111
N        -3.40349670568884    8.14668742892721    3.83219641555149
O        -3.69372222286227    9.05242747652541    3.01426296411238
C        -4.46519321337357    7.39629974150295    4.56346930604940
C        -5.03285211773588    8.38275362809800    5.58913736656590
H        -4.26184867747746    8.72010546603052    6.27840145742700
H        -5.84729760653392    7.93315452875998    6.14986341062380
H        -5.41287747037111    9.25234104687380    5.05644417552657
C        -5.56186941908932    6.99758646839737    3.58545044016222
H        -5.18210271402422    6.36892230654566    2.78629154015393
H        -5.96658669179110    7.90082236496277    3.13444098565800
H        -6.35881798239945    6.47442539728642    4.10676120896859
C        -3.65635470724614    6.23229175219505    5.19474006005919
C        -3.99837692438664    5.88522276774364    6.63916422730559
H        -3.91436066166381    6.74729765709106    7.29319190544497
H        -3.29595370839168    5.13252322371206    6.98899243343036
H        -5.00660255956391    5.48478583053843    6.69984043129529
C        -3.65514485166198    4.94984083250595    4.35324726939435
H        -3.36392930564793    5.15704630245090    3.32597648867484
H        -4.63303960775016    4.47734479572115    4.36718481111883
H        -2.92512680395048    4.26235690865967    4.77506804608978
N        -2.29253474197573    6.77265275017716    5.11658146752811
O        -1.29091808570087    6.23762159317880    5.70059227071189

