71
CSD_code = EYOMEK | q = 1 | S = 0 | Stoichiometry = C22H38N5NiO5(1+) | MND = 6
Ni      -10.98066856149373   -3.23423746720255    5.90395789143479
C        -7.05102429358007   -2.70009902506980    3.04994392255234
H        -6.27242607321804   -2.75163262392601    3.80183488756844
C        -8.02582985386587   -1.55294785176767    3.22112943440438
H        -8.25754627841394   -1.12481882566741    2.24703167049149
H        -7.57031233549539   -0.75299711910942    3.80671000468571
C        -9.35959063412983   -1.96807047669540    3.88151634310405
C        -9.75246030309360   -3.38466575705149    3.52759761980555
C        -9.12831515382875   -4.03880814879198    2.34340209094217
H        -9.39741960816509   -3.48342810226889    1.44425170293613
H        -9.49221500134347   -5.05983312783363    2.23737316818292
C        -7.62647286174399   -4.01138338596476    2.56753372580751
H        -7.24095154539032   -4.92252059738944    3.00889292029184
C        -6.67906216963093   -3.23523693046855    1.68634321982195
C        -7.13452056769518   -2.57160362120936    0.40958488677567
H        -6.47708149578432   -1.73625963828084    0.17745344913006
H        -8.15261622375384   -2.19649947294741    0.44969371408098
H        -7.07358632562583   -3.28439161003803   -0.40985019861314
C        -5.28407851486545   -3.80958911536712    1.55188033429522
H        -4.95480802258234   -4.27727783640238    2.47634597637217
H        -4.57814888931473   -3.02257951703215    1.29557413279763
H        -5.25890797957568   -4.55731333206048    0.76230355967218
C       -10.49243678902911   -1.06390701188529    3.36127371551029
H       -10.22931400031796   -0.01701895101661    3.49504074517067
H       -11.41635700233164   -1.27231220024050    3.90425502882175
H       -10.67342729520444   -1.23858932272962    2.30444418721026
N        -9.38800156974749   -1.83352431978739    5.36263008803773
H        -9.58310704259121   -0.85595378454372    5.57033371382241
C        -8.22022870974505   -2.23454940099283    6.15495267463730
H        -7.28264300516263   -1.88818098671335    5.70941281779552
H        -8.32049437528807   -1.76212312788262    7.13459841275709
N       -10.60677369833778   -3.93737513717846    4.29879396462615
O       -11.00362472015376   -5.22701140757158    4.03967952869733
H       -11.82407516012011   -5.37611001164181    4.56141169269176
O       -13.00307679421707   -2.35293216416505    5.44185687464663
O       -14.79002813333471   -3.54083070245999    5.42740479928702
N       -13.61676509367016   -3.44562888013046    5.57436903759109
C        -7.82945821309836   -3.18309956722296    9.63898959620473
H        -6.91073704827585   -2.98442762738175    9.09984077090416
C        -8.52906585861862   -4.47000038502495    9.25168285229032
H        -8.91626502100721   -4.95624797372423   10.14581407990927
H        -7.81850882256332   -5.16824799431796    8.80680235629739
C        -9.71190505570590   -4.26253508364333    8.27947523306476
C       -10.40743279227049   -2.93890548759257    8.50408690207129
C       -10.20838976665253   -2.22251139459742    9.79518650507417
H       -10.59313556962594   -2.83810832575999   10.60905279175645
H       -10.75098915306242   -1.27820251911569    9.79359810873512
C        -8.71413268096502   -1.99732777165459    9.94644463756619
H        -8.38877855701014   -1.02402943395873    9.59946924362862
C        -7.89534628150886   -2.63057611544397   11.04417915130643
C        -8.53190293555355   -3.39424843472131   12.17984210851357
H        -9.43275978091044   -3.93054147664044   11.89671734345159
H        -8.79191745776698   -2.70338532158932   12.97907229590037
H        -7.82145209580098   -4.11622439429322   12.57790088472556
C        -6.69050815912793   -1.83875549843886   11.50817176991888
H        -6.22837560225517   -1.29795151959203   10.68609012272602
H        -5.94764942472444   -2.50579576686530   11.94027040038060
H        -6.98309903743658   -1.11914399774484   12.26959692702046
C       -10.77212070641201   -5.35293562738044    8.52126596421154
H       -10.31555983644402   -6.33892319947655    8.47148398621376
H       -11.55786468373816   -5.28431071085574    7.76629931771429
H       -11.23078010531744   -5.23751321493878    9.49923726717531
N        -9.35606876268432   -4.36285814151784    6.83871204859713
H        -9.32896704156362   -5.35382290068441    6.60604823176474
C        -8.11411544149555   -3.75464039517331    6.34883375047855
H        -7.27006027532310   -3.94816308181280    7.01782771347971
H        -7.89037486433626   -4.21610923957821    5.38456044259740
N       -11.12651028547926   -2.51374529186302    7.53852607426715
O       -11.78127624323074   -1.31346404634821    7.67282634596627
H       -12.45935776443830   -1.28472499367115    6.96071322820334
O       -12.88893859375688   -4.42968207589172    5.87481981004125

