45
CSD_code = EYOPOZ | q = 0 | S = 0 | Stoichiometry = C17H16CoN9O2 | MND = 6
Co       25.90685917466019    2.73175246846718    5.32578301258435
O        26.99319177661314    1.62895898542227    4.23842356455321
N        24.85803534384675    3.84666590128720    6.40310726028820
N        27.54983743076132    3.59934818218640    5.87704484827488
C        25.60289887650294    0.19173160750271    8.57829468359424
H        26.29704983678783   -0.55465092574956    8.22401400914832
N        25.63857539295868    3.98280334887989    3.96315337433866
N        24.21756969530015    0.69311802386623    4.71738641348322
C        24.30689211195075    3.54500795491989    7.52837663365848
H        23.63462811899484    4.27291512084959    7.98955458757955
C        26.20897037280325    4.02042633414160    2.80894323591241
H        25.94052908272886    4.82700467740390    2.12218123917047
N        24.38581213170141    1.85369797822751    4.77096869700236
N        29.16545396812929    4.88536841556591    6.15718872856636
H        29.70538904986718    5.73734581607229    6.20201814185623
N        23.87818701659133   -0.38150966691227    4.60799438921617
C        27.16063012172181    3.08192018785361    2.33335350306842
O        26.14775926025732    1.47342321424343    6.71578321205953
C        25.44102763557134    1.35415936899024    7.77972799837101
C        27.76428176441457    3.28963053445265    1.07826085736792
H        27.50314573324399    4.18262721561320    0.52631899383435
C        24.51524021534828    2.34024577694006    8.24577450275534
C        28.65000587887994    2.89728373466378    6.22802238748871
H        28.66119108080670    1.83446292136201    6.33919193442888
N        29.67293077739728    3.69709137209444    6.40678679218153
C        24.59129561395583    4.92478778091130    4.28285634835046
H        24.71871361312223    5.87001788846179    3.74285557415484
H        23.63272271819226    4.47437983583483    3.99994349560128
C        28.40427967691517    1.00011920813021    2.50296951691321
H        28.63437365362859    0.10758977715300    3.06425594699940
C        24.61444303375372    5.13532478271697    5.79653203622161
H        23.67747308407572    5.57897193738380    6.15213345066473
H        25.44698365063625    5.80227592600720    6.05334159164842
C        23.80985803410602    2.12118252327063    9.44475603819264
H        23.11159745153045    2.87868345011447    9.77439791096683
C        23.98972924742531    0.98274092364944   10.18176045296636
H        23.43859350019962    0.82615103946803   11.09612800822300
C        24.89735801372259    0.01386095728690    9.73569817450439
H        25.03721510939865   -0.88806611470696   10.31408330136277
N        27.89100864067824    4.84806535695200    5.83830509067747
C        27.47948147263870    1.90745389477780    3.08611896050024
C        28.65984428610239    2.39579610561859    0.55763621538406
H        29.11638220310148    2.57059471815014   -0.40429984254618
C        28.97304115254856    1.23950324640577    1.28323569487530
H        29.67301399642901    0.52733821407006    0.87033903355632

