39
CSD_code = EYORIV | q = 0 | S = 0 | Stoichiometry = C16H15CrNO6 | MND = 6
Cr        2.86208257256177    5.87214803652424    4.13305788485859
C         2.07136200494202    7.53189874038885    3.91741385757765
O         1.57553995483313    8.56255215440417    3.77572279120030
C         4.46461535211494    6.78892123160957    4.42305936378041
O         5.36300502781220    7.49471298163978    4.54892656878575
C         2.36924748671320    5.98376886461375    5.93247931863138
O         1.97779444554727    6.18899315556514    6.99361020487261
C         1.16202363312608    5.17743593714297    3.79433213222985
O         0.05975256203936    4.92505510500842    3.57507729547816
C         3.24416444858774    5.96707966407425    2.30746499667092
O         3.41307762342147    6.19279845736809    1.19071455853447
C         3.78010950652491    3.98852623913974    4.40538254198237
N         3.64188523406233    2.91459765782578    3.65074674612032
H         4.14601871569780    2.06426750939131    3.90124448045158
C         2.82104406770010    2.75075129812917    2.47608576997359
H         2.36701401353300    3.71737695053405    2.24013045165417
C         3.67686157397335    2.29858006266182    1.28998999045809
H         4.15437750484939    1.34306579202813    1.52351860177009
H         4.46039164294114    3.03632793657420    1.10613717735387
C         2.80132539253673    2.14279977541799    0.04977526864267
H         2.37241637296963    3.11244206850480   -0.20980268822469
H         3.41183172165046    1.81045654558621   -0.79140538568888
C         1.67899782426103    1.14178222915746    0.30765163806561
H         2.10875288625030    0.15673278204103    0.50465569902516
H         1.04769158988492    1.05857421479242   -0.57813166337808
C         0.83701381601774    1.57641847107407    1.50351594090348
H         0.05290348222429    0.84211431138188    1.69483455559063
H         0.35553943389818    2.53110525964116    1.28387709935455
C         1.71019617635068    1.73057082310745    2.74504944005077
H         1.10686013430472    2.06766019177245    3.59016429184644
H         2.15334076603400    0.76536916693162    3.00460664695627
O         5.26227908158195    2.49976339331639    5.65098130301301
C         4.68208907457654    3.73571701468319    5.50881259816674
C         5.12057576978325    4.54031885827970    6.54126564238931
H         4.85273535510700    5.56221234169218    6.71564442388273
C         5.99168758124144    3.76387221332022    7.32844072232131
H         6.51330660319424    4.07193610313608    8.21092911782763
C         6.03629466288083    2.53519550542430    6.73825362983333
H         6.56689490420710    1.63790095628147    6.99208698705081

