23
CSD_code = EYORUH | q = 0 | S = 0 | Stoichiometry = C10H5NO5SW | MND = 6
W        -0.25901874579204    7.26887469568870    6.52137552470119
S        -2.76358385281031    6.59330103143793   10.67792364172822
C        -1.22189079681143    8.45789103220478    9.79876278369585
H        -0.54583270387140    9.03719306452012    9.19550806330058
O        -2.52836400675828    6.33218276442725    4.56370487944422
O         1.19993964730975    4.50863818461385    6.18987495710671
O        -1.69630492350469   10.05600798710106    6.69308455701800
O         1.33891877182882    8.31563428343230    4.02927912290629
O         2.11005561885102    8.19051958416642    8.36633069804615
C         0.66001221277000    5.50516593606026    6.33846501654844
C        -1.71886730672312    6.66875826612957    5.29685496284983
N        -1.92381288154482    5.28433589952569    8.17377550607446
H        -2.48149895508389    4.90560641569379    8.93613777459477
H        -1.78802347328669    4.69400097877425    7.36702243175328
C        -1.17833635430662    9.03914755802055    6.66055802570310
C         0.76182813863814    7.94111868430804    4.94122989762749
C         1.23002710803203    7.85851603491018    7.71908669747472
C        -1.40267458566978    6.49735755799379    8.21574763087393
C        -1.69188382498860    7.21970450182349    9.41838152404429
C        -2.53814256092417    7.99157359049872   11.62784526174539
H        -3.04529278004419    8.06845461036059   12.56985537676239
C        -1.69716333255652    8.89093587093599   11.04468706661070
H        -1.43209041275178    9.83128146737186   11.49340859938857

