45
CSD_code = EYOTUI | q = 1 | S = 0 | Stoichiometry = C8H24CuN8S4(1+) | MND = 4
C         5.10529306029538   11.17793018453986    3.93241705820504
C         3.64527948649192   12.68079787314073    5.23189216970026
H         3.70316808936389   13.71522458933182    5.55696169759044
H         3.56216270059442   12.04333273553601    6.11553143807836
H         2.74987236870075   12.56107868186580    4.61654799787221
N         4.26084232274282   10.15916284529890    4.07377595599237
N         4.83527129540075   12.36366116619396    4.47690926713743
S         6.56299315463570   11.00463976720175    3.10208039839523
Cu        6.04520325590801    9.06780094665819    1.79006191013050
H         4.47619574541621    9.27441316475823    3.62230742525839
H         3.35671706881278   10.27518210844238    4.49889997477190
H         5.53233493952685   13.08000861689446    4.34557462556010
C         6.98508922442121    6.95769159908546    3.93243495443079
C         8.15517402988088   10.00755224485521   -0.35254542619179
C         3.93522456625753    8.12804106427727   -0.35254191285217
C         8.44512411493117    5.45480172754480    5.23187692647527
C         9.65798100787108   11.46731966847554   -1.65242541089989
C         2.43242111774489    6.66827508303992   -1.65242496178448
H         8.38724070449003    4.42036973510208    5.55693725214831
H        10.69234960863982   11.40932265157762   -1.97763578587864
H         1.39805331871554    6.72627452109779   -1.97763738407712
H         8.52824416303236    6.09225830023561    6.11552496169646
H         9.02040288270084   11.55033184924981   -2.53599063372757
H         3.07000162570805    6.58525930623348   -2.53598958120408
H         9.34052711438658    5.57453028082091    4.61652461988375
H         9.53840249203526   12.36283010634526   -1.03720605603395
H         2.55199739381517    5.77276675205383   -1.03720458276445
N         7.82954183796277    7.97645257248431    4.07378520457760
N         7.13647645365030   10.85207211500830   -0.49379492676602
N         4.95392510477181    7.28352274413954   -0.49379282207989
N         7.25512324811500    5.77194802109699    4.47690847907496
N         9.34086401183503   10.27744710508843   -0.89723345730522
N         2.74953782423001    7.85814792639793   -0.89723436876991
S         5.52740469633411    7.13096190293533    3.10207259514325
S         7.98204264842175    8.55003068096807    0.47810862328276
S         4.10836045302715    9.58556879745962    0.47810252943037
H         7.61420490753512    8.86117138955664    3.62228792672997
H         6.25192624712939   10.63693641690188   -0.04198753208197
H         5.83848588109004    7.49866578562287   -0.04199603858100
H         8.73366895987580    7.86043086269534    4.49890770279172
H         7.25250168001914   11.75615006882747   -0.91903275471187
H         4.83790155332356    6.37944571378911   -0.91903207379399
H         6.55806445709709    5.05559364048832    4.34556612917094
H        10.05719666966905    9.58035900405329   -0.76589398055428
H         2.03320651334825    8.55523768257659   -0.76589813346333

