54
CSD_code = EYOVAQ | q = 1 | S = 0 | Stoichiometry = C21H20N5O7Zn(1+) | MND = 6
Zn        9.01262639840217   12.01786736851817   10.48078115667842
O         7.28941346059297   11.79091760711711   11.51121825873829
N         5.74180401026357   12.92620955215721    9.36943195807668
O         8.22900720375699   14.01131033407897    9.90965006426653
C         6.46438266660671    9.11980207114940   12.23905661082630
O        10.61508987137622   12.66138878674469   10.37100331604621
H        11.29626078056760   12.20612998488597   10.86356914266203
N         9.35449713079865   14.95601219286993    8.21945609142311
N         8.09777672376133   10.27102323134145    9.35714280492127
N         4.74331515288147    9.69960261071572   10.55884614827462
N         5.80679853404337   10.01562588012714   11.35644468784433
O         5.76590184806322   13.95542940723685   10.24857592929840
O         8.11685366307234   11.40305158883331    8.83529981550609
C         3.40566187965116   10.66359217696938    8.71236023531782
C         5.40797375529293   11.71092348513312    9.97927498519455
O         7.26988080741719    9.47510175048866    8.99611589141112
C         9.54176205737560   15.32645633545479    6.92297933895324
C         6.24202530700653   13.00919366893240    8.16868756904492
C        10.70014466529583   15.99370272054611    6.51578217265619
C         6.91766256626093    7.89120862866287   11.77431752687563
C         8.26873046781251   14.31510789998952    8.70328765508344
C         7.40992672575599   14.28433129113591    6.41299198924739
C         6.70952792890982    9.53264906129557   13.54131917861548
C        10.84461790644371   16.36397834694930    5.19901710800687
C         8.52875617856435   15.01615030768018    5.97647182667567
C         4.49731208542008   10.70835265748280    9.71002162501233
C         4.00631570217286    8.47707219649940   10.69279527645550
C         7.23295978440860   13.95216192826117    7.73994355504501
C         9.84729680445346   16.07585517638211    4.25665030613089
C         7.60653669631741    7.06118673987041   12.64019800779137
C         7.84785346092353    7.45848183669071   13.94554525519098
C         7.40650971735838    8.69333733049752   14.39236857140343
C         6.27693209023989   11.24940586629405   11.02742199444819
C         8.71121370586462   15.41083091033131    4.63323803144441
O         8.90896968754257   10.00895501573874   10.22917766270440
H         6.67019585415046   13.98389388135958    5.68419074127877
H        11.46897929338054   16.21219684994049    7.24060350924486
H         4.26458838653040    8.00569074048587   11.63934687248952
H         4.24627761189613    7.79125756484193    9.87761921976215
H         3.33253008110076   11.61178520447512    8.18832186594165
H         2.45054638147959   10.46080609031390    9.19459935465747
H        11.73744770437673   16.88123982017239    4.88363027697866
H        10.11112177841092   15.06606834402760    8.89323388752836
H         2.93625315109543    8.68556630828958   10.68001888637522
H         5.96304704811562   12.21719034485639    7.48479216803583
H         6.37026421549379   10.50175026985201   13.87138521474701
H         7.60620951818251    9.00775811975796   15.40458453627627
H         7.96737212609392    6.10799891079518   12.28722217363259
H         3.59114156828417    9.86865964565370    7.99077944863456
H         9.98474801325949   16.37836699583528    3.23079736271909
H         6.76498698097166    7.61036895883937   10.74398641182408
H         6.72615941630927   14.17519423462967   10.45625690833792
H         7.94069502097011   15.17952977749596    3.91433123723407
H         8.39223842522798    6.80867199133802   14.61265817702516

