48
CSD_code = EYOVUJ | q = 1 | S = 0 | Stoichiometry = C22H19N4O2Zn(1+) | MND = 6
Zn        0.98610933758072    5.68451580898496    3.58150867179908
N         1.12045806525893    7.50468986008427    4.60934938294088
N         0.97186781794010    3.85808081750829    2.55687502959919
O        -0.75169620119221    6.22961873793727    2.66325322197114
N         2.26724098873121    5.18212930564300    5.14506768092463
O        -0.72961608109353    5.22633494452904    4.58835730829343
N         2.20988537284600    6.11567340139075    1.95247009709855
C         2.24768227014365    6.07514664820681    6.13950094177614
C        -1.36816246441651    5.74101927091586    3.64028306066849
C         1.49180035629421    7.31192052130623    5.87982630004344
C         1.29141804956646    4.02579686123125    1.26886577360057
C         2.09466349116282    5.22208335647599    0.96493245278016
C         0.86998998236689    3.12083892037306    0.29710013492452
H         1.10114266763125    3.27513609191854   -0.74362523854849
C         2.91014111840595    7.22062157749882    1.75449709287120
H         2.96455201601987    7.90254679671827    2.59097935868804
C         2.91930124046930    4.04201312785709    5.30439679584761
H         2.89705803867401    3.36281647222026    4.46423745519666
C         2.91929336834037    5.83491683917983    7.33733798673215
H         2.92333902229962    6.56802360491914    8.12658584558687
C         2.71590192264912    5.42485864517678   -0.26655132917702
H         2.64261944396117    4.69061987901418   -1.05134925509272
C         0.25684972063732    2.80534667860838    2.92291460311772
H         0.02810827813304    2.73521974285582    3.97727433720930
C         3.59861476438671    3.71942707188011    6.46790903654732
H         4.11262906111914    2.77643035112207    6.55765992975537
C         3.54528542946418    7.50506084319976    0.55655350564899
H         4.10138751526764    8.42034319883087    0.43603102868116
C         0.08887526293774    9.56223067156415    5.21046863952349
H        -0.46241218280050   10.43606102526704    4.90369915763029
C        -0.18938175766214    1.85239466489635    2.02056189252850
H        -0.76911818117835    1.00945768589429    2.35956529535222
C         1.16245515465596    8.22919081043744    6.87529252319928
H         1.43399864257623    8.05519496562099    7.90305297285597
C         3.44591417148872    6.58294127954161   -0.47346957186361
H         3.92919607969785    6.76021372999411   -1.42190193347536
C         0.44325304883732    8.59486315621377    4.28303981866578
H         0.16904523257575    8.68439327689373    3.24101689939102
C        -2.87355937756199    5.77987845638300    3.67504673426372
H        -3.24441808584136    5.16787911986965    4.49080818709959
H        -3.26885635839731    5.43194427896984    2.72457257826024
H        -3.19607649052796    6.80918736931235    3.81602562017165
C         0.11722784792222    2.02254351785468    0.67993947387675
H        -0.22678001826140    1.31492069631462   -0.05871909391257
C         0.44872082312542    9.36652931099472    6.53425469688189
H         0.17546478867999   10.08458553791862    7.29210004375389
C         3.59870953762200    4.64013619222793    7.50396068962889
H         4.11947726946638    4.43352487824783    8.42624416667219

