43
CSD_code = EYOWOF | q = 1 | S = 0 | Stoichiometry = C18H18AgN6(1+) | MND = 2
Ag        5.25749198055256    3.58742738900566   13.42625906058016
C         7.19420339380280    2.61996524687598   11.00463863805751
C         6.21803777807625    2.66579178102874    9.89766225586095
H         5.22475261362505    2.87683191774879   10.29125287927284
H         6.19705093377125    1.71129959369047    9.37396825452791
H         6.49232330913803    3.43828521572679    9.18093451505938
C         8.15882284585627    2.65409674848842   12.91030364435246
C         8.35169692689835    2.77792399859091   14.34669245352836
C         9.56782657446945    3.24927019658861   14.83774000603862
H        10.34563219896082    3.51335731939288   14.13909929275574
C         9.76376188589242    3.36982576248301   16.20066765336842
H        10.70665416700781    3.73495980623771   16.57671674762673
C         8.75639722348890    3.01424436296671   17.08381123776799
H         8.91425192137542    3.10203825617467   18.14758132486770
C         7.55288277278126    2.52325018378395   16.60265314706812
H         6.78709081090741    2.20506995893609   17.29457210283693
C         7.34320383851199    2.40600901272921   15.23860446764667
H         6.43142650186593    1.93045514883876   14.86876182333845
C         3.21216349798585    4.46255955285766   15.80501081033003
C         4.10632539555048    4.28069439201992   16.96579890330064
H         4.03308268120805    5.13319095643043   17.63840365862167
H         5.13516085009596    4.18149462968925   16.62330648750142
H         3.82691539763289    3.38596568166400   17.52117295131612
C         2.37993883390079    4.60815944745970   13.84321446917964
C         2.28557023746361    4.58787778920812   12.39151915041534
C         1.10081072034644    4.17718683586094   11.78366006503042
H         0.26869107558055    3.88588398747698   12.40458198398212
C         1.00436602105680    4.14924437225954   10.40498135856567
H         0.08565751811796    3.83025740216206    9.93806377616509
C         2.08057173917049    4.53781781795662    9.62259884566418
H         2.00012883216204    4.52164494962554    8.54671656964509
C         3.25329086993290    4.97091122478243   10.22110611878256
H         4.07452632328813    5.31592875875913    9.61059925481891
C         3.36353138348300    4.99505949574839   11.60179036111898
H         4.25197978460957    5.42819428802984   12.06683711946809
N         6.94534374664719    2.81472366784163   12.29048725216433
N         8.50218880262894    2.35945137844544   10.86616542000466
H         9.02878682150384    2.16094792726942   10.02804598281842
N         9.11279636246221    2.38446961917054   12.05447635908999
N         3.53940838378937    4.34391153192284   14.52746962724471
N         1.91161015800599    4.78060195007755   15.87615288532685
H         1.33825700649330    4.94849510756400   16.68996193226818
N         1.38328987978279    4.86792533630604   14.65165915271047

