39
CSD_code = EYOYIC | q = 0 | S = 0 | Stoichiometry = C14H17Cl2N4ORe | MND = 6
Re        8.65435881309509    5.60822453342995    9.30290250767478
Cl        9.91289675730273    6.06225981264448    7.27835507288181
Cl        7.56338127550788    5.05843476234149   11.37033934849603
O         6.38615085226024    7.23350601255769    8.46069025939431
N         7.30547736575354    6.58628967456664    8.78853669123703
N        10.38143985110856    4.37042831103312    9.92658871612042
N         8.08046577582344    3.77350355803500    8.55202477762064
N         9.76523949566587    7.02280323517552   10.31039825929308
C        10.28539881663057    3.70097288570181   11.23665886750422
H         9.36110063560466    3.11636213386152   11.24405686422997
H        10.17109556470208    4.48306016597966   11.99270154295637
C        11.44289634732405    2.78809050444571   11.63945698164053
H        11.50874768530060    1.90366032955609   11.00981832165700
H        11.26407432483222    2.45251662250198   12.65772809377105
H        12.40308647606144    3.29903652892571   11.62305121474596
C        10.45544642935067    3.38524184959331    8.83518044512091
H        11.14892649707017    2.56538018895231    9.04776950727811
H        10.79848255966219    3.90765548496159    7.93106853196670
C         9.07440141381487    2.86395542406950    8.52699690503382
C         8.84899870378567    1.54341353061408    8.18098448144015
H         9.67301289064176    0.84624416048117    8.17577762804050
C         7.56921747478420    1.13232240456634    7.84103432937902
H         7.37520040120641    0.10688313778315    7.56912539596376
C         6.55204073578015    2.07385694303985    7.86151881591100
H         5.53994238572495    1.80774405994343    7.60456088307447
C         6.84821948044274    3.37367123290764    8.22287325828166
H         6.07805620667836    4.13213848494120    8.26100004942550
C        11.47937261739356    5.35088803358790    9.92090952045359
H        11.70587778918590    5.60083600322608    8.87533902515052
H        12.39144387040317    4.97188935266951   10.39404242945729
C        11.02660783685523    6.63170192739447   10.57722831666398
C        11.87799394777696    7.39209918501860   11.35934204008278
H        12.87997739198009    7.04042971015422   11.55224033343569
C        11.43642597126287    8.59800561330975   11.88168742138302
H        12.08640883431117    9.20295785165339   12.49387927000683
C        10.14107578110254    9.00007479034879   11.59546175992723
H         9.74873206441029    9.92964453659286   11.97387270903190
C         9.34359134920005    8.18691680926485   10.81426980830126
H         8.32423733020307    8.46270021416932   10.58032961596734

