95
CSD_code = EYUGEK | q = 0 | S = 0 | Stoichiometry = C24H44Cl6N6NiO10P2S2 | MND = 6
Ni       -0.28297174019884    1.26364223191717    5.07594340762673
S         1.65169457612161    3.28146446932562    3.10603464145532
P         1.90361153493571    0.59323529970800    6.98071060166430
Cl        4.17728629190317   -1.29602528193939    3.50776678405349
Cl        4.38001745735492    1.56746508513154    3.40454894003691
Cl        2.40628407114306    0.22262407189212    1.81696408040279
O         1.37070129238416   -3.45302056289355    8.78362098639516
O         0.56874002187109    1.26232165965959    6.78034607977861
O         1.08174378915749    0.14390218805859    4.24789962898569
O         4.03806645972517    3.10473263608458    9.97622535651932
O         1.24356967325942    2.97415439755781    4.50065142147047
C         3.26954797419730    0.20733843882002    3.34750227445643
N         2.84653386706346    1.38420650760564    8.10986125963202
C         2.84914108466026   -1.68234268395872    8.02447411602748
N         2.88210512674365    0.51511458449997    5.65249381194493
C         4.67029119443744    2.82100034542754    8.74655065993841
C         2.17440823047785    1.68128199297878    9.36197515687605
N         1.67667409022066   -0.89518038916323    7.69154327796099
C         0.58916008980445   -1.75087873096850    7.24294988455058
C         2.28763873502502    0.30456440959777    4.52333404299778
C         2.45116586985761   -2.63208405188114    9.15809167871205
C         3.64136722580962    2.51267890414490    7.65845888948383
C         0.20306017484702    4.14208095790497    2.38368471836865
C         0.24571488691945   -2.68842467269443    8.39912104026013
C         3.24391051501504    2.02094716857275   10.40177565609546
C         2.69793908748816    4.79551768739072    3.28380033910895
H        -0.52086019933436   -3.40614612000518    8.10512742534826
H        -0.26710309459208   -1.13640740802296    6.96455357346808
H         3.64527148786453   -1.00674505550502    8.33690726512492
H         3.27172865869110   -3.30709408170360    9.40794596576775
H         3.01564114259742    3.40152547993415    7.49220985310674
H         2.19783208659496    5.51345796498028    3.92368034686576
H         0.89483027732831   -2.34922077273107    6.37276253488236
H         2.18029479708111   -2.03814426827819   10.04532324193113
H        -0.11232406195342   -2.09644327387456    9.25472630384596
H        -0.61874405708133    3.43650261137158    2.47062955307602
H         3.19145921400006   -2.26941978639878    7.16137152397848
H         3.87816230425028    1.13759444212649   10.56999308523218
H         3.63873587804604    4.49366578120892    3.73173533415687
H         5.34275159946758    1.95889637475506    8.86339409544445
H         4.12684481193034    2.23271731528834    6.72435975371555
H         1.60028464228211    0.80399325593204    9.66156985663867
H         0.40648822021213    4.36766163583185    1.34325594011148
H         2.87872247092471    5.21209007950135    2.30038433051930
H         5.25325530756992    3.70804972194439    8.49423218952258
H        -0.02097189191427    5.04348125040021    2.94227899489259
H         1.48766034354372    2.53364606781699    9.25173614490622
H         2.78909419685252    2.32924406045271   11.34465293556518
O        -1.19065860956913    1.43364403744890    3.39110760146391
P        -2.53438125287281    0.76446598378858    3.22400435805217
N        -3.48044519351596    1.53873527703956    2.09025278280015
C        -2.93567222992592    1.73780979835558    0.76613026618824
C        -4.10837813957076    1.79046743586038   -0.21695569085047
O        -5.01287294996028    2.81435298053062    0.13111437483306
C        -5.51656867867898    2.63449952198396    1.43823126278089
C        -4.38348088810608    2.60430893115075    2.46640435179433
H        -3.87213811665715    3.57850417791056    2.46444287364562
H        -4.76043697996846    2.39253692812233    3.46554530926241
H        -6.07961286092807    1.69144189826157    1.49342070413205
H        -6.18984051209797    3.47369788941066    1.61951388287110
H        -4.62524510841362    0.81878818299605   -0.21395838562742
H        -3.76601790902236    2.02020231405636   -1.22760456447524
H        -2.26634650659537    0.90773070063440    0.53800011003981
H        -2.37487473414162    2.68231472931971    0.70200835918430
N        -3.52231009713751    0.75193957171732    4.54850546115685
C        -2.94289027690535    0.20828398075178    5.57825901372581
O        -1.83560492280138   -0.35109908985191    5.64490366469169
O        -1.51426176296903    2.58512572833527    5.84412114688475
S        -1.24541751124126    3.13034912986626    7.21729749901889
C        -0.08071146866057    4.51203187827379    6.90688158710427
H         0.71746394914698    4.07860380495020    6.30796087670022
H         0.30298937160416    4.87956048143016    7.85207728902469
H        -0.57120118409374    5.30575373159667    6.35526184215982
C        -2.73476700630508    4.18378782331684    7.46680507427656
H        -2.95462399882552    4.70574340203794    6.54290445386716
H        -3.56786515728323    3.53717394939317    7.72222000963259
H        -2.54671677914583    4.87880411265361    8.27678380709703
C        -3.77790831110119    0.22779866157504    6.86211260810463
Cl       -4.49717953807323   -1.37728717039715    7.05237586385840
Cl       -5.05016435724566    1.42852038829818    6.80072318732246
Cl       -2.71713010925981    0.55462613671958    8.23733828316083
N        -2.34383695760600   -0.73079455319752    2.50718182247091
C        -3.52561233994645   -1.56357357826548    2.40051407443550
C        -3.32488676657662   -2.49606968342007    1.20357404603004
O        -2.15896055650337   -3.27288869735530    1.34978445729298
C        -1.01330718772656   -2.46229943398417    1.51105234124912
C        -1.15563170624115   -1.53576317563978    2.71830801857474
H        -0.29613602630285   -0.87498140710232    2.81289992392724
H        -1.24411342446649   -2.13636021462655    3.63369748094763
H        -0.17503736458706   -3.14825338211083    1.64082768802647
H        -0.85601310444137   -1.85858077011461    0.60367592422535
H        -4.15079966431192   -3.20425974362708    1.11536949578788
H        -3.25785353693840   -1.89204750584390    0.28464807975331
H        -4.39334626089909   -0.91872502512065    2.25607393087973
H        -3.67005098684607   -2.16414207623908    3.30944446965646

