45
CSD_code = EYUGEM | q = 0 | S = 0 | Stoichiometry = C20H17N2O5V | MND = 5
V         3.29451621401112    1.94961421055347    8.02859835486386
O         2.82789709605416    0.48684260509216    7.22970391012161
O         2.76259525048028    3.04900123415567    9.44909157484852
O        -0.64504477444428    5.47130559838744    9.05898172337138
O         3.86868196928511    2.91081841706300    6.98536469981031
O         4.43714692252933    1.35094667578245    9.00004367764397
N         1.42230997831647    2.49429896689973    7.52834813541028
N         0.90650980797721    3.48640399114176    8.27120891598035
C         2.24455799812691    0.24014660053355    6.09709482532140
C         2.61818271377459   -0.91312571063222    5.35718608609774
H         3.40374804275697   -1.53393919393225    5.76377817036809
C         2.00984526455749   -1.20686107757572    4.17788311167594
H         2.30282113371853   -2.08334920320720    3.61782944807524
C         0.98984329538201   -0.37883985309026    3.64755554697126
C         0.38376168110345   -0.68793871674283    2.41573185407182
H         0.70815831302280   -1.57397832603835    1.88934628945915
C        -0.59088327338765    0.11617209739808    1.88972655899126
H        -1.05123758369505   -0.12542480673620    0.94363516368810
C        -0.98616623815066    1.26421823913297    2.58292111341437
H        -1.74752548564757    1.90390917540341    2.16170917021888
C        -0.41499505063669    1.58686893657883    3.78728200883353
H        -0.73347426272660    2.48770699798566    4.28654689354873
C         0.58133488496773    0.77663881536493    4.36321686220417
C         1.21087099136538    1.07582786518184    5.61792339853372
C         0.79299840975233    2.15093683900804    6.44798875317242
H        -0.10800106634558    2.71194330273888    6.20379225389920
C         1.71501038668982    3.76429807100780    9.27260636509028
C         1.40216270375242    4.86202765395157   10.18878273779391
C         0.24909312975673    5.65608800774330   10.03829106786235
C         0.01741874928218    6.68564454218725   10.95288504995284
H        -0.87029269404517    7.28450440324881   10.82373235550065
C         0.89958025107909    6.92680366051249   11.98383750639593
H         0.70112966156103    7.72896911473319   12.67883656352906
C         2.04134127435920    6.14778515084828   12.13136669590526
H         2.73114780882025    6.34219897625412   12.93794096069993
C         2.28557093069532    5.12804447641003   11.23949038483141
H         3.16783990746658    4.51014631868337   11.32674852034306
C         5.32021797884909    1.20458782250175   10.02396037471023
H         5.66070602303306    2.21366240895788   10.32296245548399
H         6.19971344634397    0.63754297684898    9.67064646689045
C         4.67598417257883    0.49575286453413   11.21993885999110
H         3.79680272061478    1.05483994328140   11.53920088088030
H         5.37996993368773    0.43156122215415   12.04515297445850
H         4.36971635452875   -0.50931834745166   10.93368883225613
H        -0.34006497120162    4.73031705314690    8.49064244682990

