77
CSD_code = EYUNUJ | q = 0 | S = 0 | Stoichiometry = C30H40Cl2N2OPRe | MND = 6
Re        4.19284103046284    7.39897557743235    8.84639222936737
O         3.50723433386027    7.28588641437568   10.35734846643885
Cl        5.15489233006422    7.43837959441523    6.79878095663550
P         5.20369488514806    5.22960118290103    8.91329813846458
Cl        2.14882084081288    6.96003598065438    7.77052101994543
N         6.06740589281872    7.94731433539905    9.49202838820753
N         3.74990167893195    9.65039749255965    8.26225690220554
H         3.66967597492950    9.41384061825404    7.27243170541290
C         7.12990489458775    7.10454389228207    9.36017989448951
C         6.93227298249113    5.74622240615769    9.00502373528224
C         8.01418645017369    4.88890650215381    8.83794349198904
H         7.83955980033088    3.85375927084124    8.58734426963028
C         9.31662294205634    5.33534423534485    8.97835026836163
C         9.51674791018762    6.68041999242267    9.28986714358656
H        10.52653040764006    7.05511951556077    9.37968468330160
C         8.46290894095321    7.54202256459538    9.47547214105963
H         8.65211511514518    8.58160863734050    9.69855985609608
C        10.48461873510144    4.41304952641882    8.79988531403493
H        11.01992345563348    4.29162331030404    9.74155298271329
H        11.18438534535184    4.82005540565600    8.07157358248382
H        10.15946903976763    3.43313168632162    8.45953509654140
C         6.20900411028124    9.14091134613023   10.19231581833072
C         5.67968082616514   10.35370331003691    9.72370788158013
C         5.83629989815539   11.50588703659679   10.48250563435435
H         5.43679509278034   12.43631188931466   10.10057849142690
C         6.48390685351537   11.50340071475387   11.70826728549585
C         6.97483312732548   10.29167396268250   12.18239984709577
H         7.46697823347418   10.25399340530979   13.14349909765886
C         6.83932833986255    9.13795388902406   11.44315775487237
H         7.22000476591169    8.20266285048520   11.82621375262348
C         6.61852257009277   12.75878806689318   12.51496519160094
H         6.55196960900045   13.63863146070936   11.87949135236533
H         7.56804985256851   12.77684490057006   13.04537361218515
H         5.82010235168993   12.81462915406942   13.25592009120364
C         2.52962394827334   10.35238021044618    8.55523281599136
C         2.08258603982947   10.59993145495483    9.85682353839308
C         0.89828615417304   11.30676439516065   10.02846536886722
H         0.55397608907973   11.49847051081017   11.03484511890394
C         0.14192168733303   11.76014354999830    8.96171453444264
C         0.58140222353224   11.46760884409150    7.67983335875220
H        -0.00650040980729   11.78798336330405    6.83149460858978
C         1.75595756271396   10.76793638248825    7.46030416748844
C         2.78962151473896   10.09758870157140   11.07295362434909
H         3.04969697381169    9.04243656653592   10.94863739288875
H         2.14601538747193   10.19003682017713   11.94406198303755
H         3.70949972670609   10.64379443689851   11.26182602652722
C         2.16019819033458   10.44534975402020    6.04832006418499
H         3.14467847555023   10.84580155077233    5.79916739539707
H         1.44359548911305   10.87326191088846    5.35185310532793
H         2.16332457140791    9.36464020046036    5.89106557789332
C        -1.13762349088608   12.50584340877467    9.18754320759934
H        -1.95579392422513   11.80014645337182    9.33311148436984
H        -1.37964845746342   13.13159156187887    8.33179062413093
H        -1.07084167382333   13.12984147262581   10.07596497010153
C         4.88580115596130    4.28460057643092   10.48534396693641
H         3.80358411796901    4.11659036718978   10.51175953966840
C         5.27631918092072    5.17148469305242   11.66381031341838
H         6.35184426369304    5.34053218484967   11.67570457753665
H         4.98826969527749    4.69836620072510   12.60010126585596
H         4.76854740543986    6.13457630099213   11.59436708827813
C         5.62675282706467    2.95304699672163   10.54933440249789
H         5.32111222016784    2.27800439278944    9.75458476797717
H         5.41078129820205    2.46818225734705   11.50021059012851
H         6.70136098267512    3.11103514937672   10.48941014284231
C         4.74655249142023    4.19237991814456    7.44069011847587
H         4.59970425491278    4.93933558235417    6.65009760873527
C         5.79132591024835    3.19903547182954    6.94504664713222
H         6.70190527698345    3.71433122030299    6.64874898061920
H         5.39599211995202    2.68673560505005    6.06883438079663
H         6.03225846865232    2.44605805291470    7.69114251597458
C         3.39057876587920    3.54648585506109    7.71700685004514
H         3.46313102731784    2.75112080790610    8.45509457554348
H         2.99356067506688    3.12289674696397    6.79676029345527
H         2.68770863538418    4.30162382394376    8.06852361278023
C         4.99880992022761   10.43962424077483    8.38505253569866
H         5.69356467398199   10.05025141469424    7.63068489971188
H         4.78936993746396   11.49102046339172    8.15345528161762

