75
CSD_code = EYUPAR | q = 0 | S = 0 | Stoichiometry = C30H39ClN2OPRe | MND = 5
Re       -1.27296481449039    9.04520274495355    8.31818265779309
Cl       -1.92046674615809    9.21031089751650   10.54532966645055
P        -0.50246204515461   11.31805733603623    8.45131402330582
O        -2.79099190061984    8.99168180738337    7.61757351035294
N        -0.14940566972744    7.56685846113675    8.88475088700127
N        -0.06029720440937    9.08745263124401    6.68589043973063
C         0.87918462810327    6.93155893934506    8.04809672703253
H         1.16415990711716    5.96629909620303    8.47834199552615
H         1.76827434293109    7.58260633911164    8.04124035872437
C         0.42431330415465    6.74745757807984    6.62694728942252
C        -0.02679960716422    7.89158909451753    5.96163172663002
C        -0.50766693402958    7.76953544850057    4.65850861454697
H        -0.89793592859849    8.64057529103697    4.15352893851313
C        -0.50808262593647    6.53909294244447    4.03437245033164
H        -0.88434938979451    6.45627766418102    3.02478888165174
C        -0.04601542544265    5.39824832547403    4.68391858479996
C         0.40768789234801    5.51860999966221    5.98973706187505
H         0.75744871256937    4.64311027712443    6.52017727384098
C        -0.06032448943165    4.07239649323965    3.98497226914491
H        -1.07712570925768    3.80649134105114    3.69843496945263
H         0.33485915921130    3.28947970717899    4.62708536504315
H         0.54023132518019    4.11410736327768    3.07694337513776
C         0.46702203673371   10.23214519648318    6.15793156228151
C         0.32248416120883   11.45608995105705    6.85204116021493
C         0.81191614864966   12.64511784773348    6.32647183422181
H         0.64348069225115   13.57049873187994    6.86035532201930
C         1.50361660807206   12.66709881396155    5.12799415319656
C         1.71918540073440   11.45038755452244    4.48047229409474
H         2.29065655423375   11.43949244738416    3.56313127937461
C         1.22307843416874   10.26544875672837    4.97235451964480
H         1.42104323837093    9.34430252455644    4.44587538903327
C         2.02456025440590   13.94514982985922    4.54329170801763
H         1.56460489413348   14.13397701301162    3.57370059531595
H         3.10198100529375   13.88583296410831    4.39279404443601
H         1.81086061214061   14.78812529339603    5.19596354714171
C        -0.49457761181729    6.71522093437391    9.97041414226551
C         0.21188730967295    6.79883097332856   11.17529569756691
C        -0.10733397742737    5.93592532252178   12.21057106735969
H         0.44027295179409    6.00906428397646   13.13984463183869
C        -1.11201836863384    4.98961584951444   12.08335370478615
C        -1.46356490202135    4.07954849705142   13.22132791215585
H        -2.29569339646836    4.49947869780056   13.78723539631375
H        -0.62078737366308    3.95936380015984   13.89820433841017
H        -1.76684469978582    3.10073283994909   12.85552208067658
C        -1.83648007768093   12.59841965746791    8.45766446022845
H        -1.34369118516330   13.57008555795879    8.31851003019882
C        -2.76455652520269   12.32610562501382    7.27790965544024
H        -2.22980055127677   12.41280872759033    6.33270397036879
H        -3.59116657887094   13.03374676840431    7.27654091753031
H        -3.17544989777481   11.31744180666627    7.34823952142722
C        -2.59164612727272   12.56802742867574    9.78179132727423
H        -3.39592088214151   13.30157177095310    9.77070338726699
H        -1.93659373588046   12.78688689509805   10.62296469792019
H        -3.02418254144488   11.58199561422259    9.94186021281727
C         0.74395646755980   11.76382335373893    9.76140038938416
H         0.29193039230430   11.42195310386475   10.70220173350205
C         1.99983442113004   10.94242220574570    9.47281998878750
H         1.73694101719047    9.89967912168580    9.28471593887778
H         2.68623738253212   10.97810798526763   10.31675684232386
H         2.51156330705561   11.32858156844210    8.59148427503449
C         1.06900359980981   13.24878106832515    9.86450610967260
H         1.51118054384606   13.61361455741542    8.94010248370036
H         1.79339158181501   13.40099828651041   10.66353241085394
H         0.18691221556735   13.84111734967063   10.09529274871682
C        -2.30358546486454    5.66965338235070    8.55187357809184
H        -1.66082924954669    5.44007578982487    7.70313042919136
H        -2.79636130942207    6.62353636315152    8.33790338877819
H        -3.06718131576659    4.90069357172554    8.63469216969816
C         1.28017117703437    7.83449195467522   11.35519875596446
H         1.73796463179801    7.74486643161739   12.33711247069526
H         0.83389973557245    8.82472062608305   11.26755121387583
H         2.05771480793876    7.73477864633996   10.59812566893145
C        -1.51406226310081    5.76427152368302    9.82115454122414
C        -1.80460371348192    4.92309073902089   10.88426902663200
H        -2.59529061571836    4.19450461686109   10.77097420889490

