94
CSD_code = EYUTAV | q = 1 | S = 0 | Stoichiometry = C38H49MnN5O(1+) | MND = 5
Mn        9.30764989249914    2.83480362417734    5.58773057978429
O         7.86613016258494    1.45713653848833    5.85570975903938
N         8.08459928992177    4.43173474191246    5.47515380486805
N         9.60166167057289    3.24268719108204    7.52108730930596
N        10.83069741444286    1.52183345738153    5.65831748477248
N         9.30107821045425    2.70041836959543    3.60922933506692
N         6.28618050762405   -0.07478792052645    6.19608734055414
H         5.64198867320802   -0.55967852178181    6.79578603321836
H         6.33305092772077   -0.33747565165393    5.22315848157208
C         7.42111811657934    4.87435576820250    4.36243027749677
C         6.55333735077284    5.98129160318179    4.68568144915898
C         6.70074422095336    6.20880713105060    6.02185845455720
C         7.64774912357197    5.23004738485267    6.49873537958057
C         8.04316065287944    5.10827621910880    7.81604019590710
H         7.61737920126975    5.79478437653137    8.52993929266609
C         8.94025735440454    4.16916460902700    8.29199035499646
C         9.29213903241468    4.02822752030011    9.67987702335668
C        10.18318185782952    2.99383447978575    9.75091362320739
C        10.37380300306539    2.52523257946977    8.40429779821612
C        11.24862005888954    1.51129068749432    8.05926697602656
H        11.81566211136969    1.05425179598849    8.85428424896089
C        11.47579167787392    1.05953526756776    6.77456466596584
C        12.44180544567688    0.04513016604975    6.42941279856120
C        12.36970762816006   -0.10895597270758    5.07671676478674
C        11.35581669897361    0.80956759686364    4.61533593981406
C        10.97218546746108    0.94262546039314    3.29501347776529
H        11.45719074260191    0.30911883891791    2.56991567509761
C        10.01602326132292    1.82568720907196    2.82983545344226
C         9.63867861015384    1.94325564783207    1.44503552494808
C         8.66454228029097    2.90107330587995    1.38957303430929
C         8.46887382303039    3.36123143402630    2.73953271606866
C         7.58155283918574    4.36134074843079    3.09000847669434
H         6.98738227724963    4.79470416817643    2.30155749080970
C         5.67331615409730    6.68906311376144    3.71308967301269
H         6.20372304937115    6.83550454066778    2.76978576026586
H         5.41920179734283    7.67447655449522    4.10613992884265
C         4.38216193941270    5.90690495666512    3.45668097536471
H         4.60061852766107    4.91264083157902    3.07326439429698
H         3.76427463157882    6.43170237014121    2.73283020145674
H         3.81548254495382    5.79909307453936    4.37828984312689
C         6.01982087262682    7.22421041675409    6.87440487438856
H         5.68261397615938    8.05265105628295    6.24998419584434
H         6.72266910694688    7.62606031506453    7.60701695057712
C         4.81138316928721    6.62507496860706    7.59928938742596
H         4.08372539085083    6.25609840043503    6.88066823611946
H         4.33264968429632    7.38053748694331    8.21667753908831
H         5.11220912807278    5.79572716812299    8.23582143224224
C         8.72523023707558    4.84092944443123   10.79276109655637
H         8.65184666046760    5.88732852001309   10.49060373962131
H         9.39237706435172    4.79131456316047   11.65407582583762
C         7.34173800954022    4.32980627977052   11.20573357659628
H         6.64481416449701    4.37776219000980   10.37170197848214
H         6.94853134149777    4.93262641084105   12.01972487315539
H         7.40345076707442    3.29742003070571   11.54139563966604
C        10.82092266892301    2.40054882230532   10.96004997720082
H        10.77458915236572    3.11506299038707   11.78244098841690
H        11.87380691218042    2.19066507964213   10.76184064856084
C        10.11387910078940    1.10932552901686   11.38287605382081
H         9.07145182849774    1.30835274043370   11.62081457849356
H        10.59313597111311    0.69186715213712   12.26416390087815
H        10.14941262545193    0.36833483638915   10.58684271147682
C        13.30531424184287   -0.67996764372499    7.40422820709986
H        13.67434365201946    0.01428851150352    8.16210230279999
H        14.17061823753184   -1.09242156781756    6.88364623924702
C        12.54379037944796   -1.82139582019990    8.08379360003844
H        11.66908843067776   -1.44529142746634    8.61002881570459
H        13.18760598904464   -2.32846298883865    8.79756936414525
H        12.21053929138191   -2.54660949860947    7.34561460421258
C        13.13751707894929   -1.04265328401013    4.20519997589338
H        14.06843181572602   -1.31842681477355    4.70274136738522
H        13.39752545457055   -0.54774897576242    3.26725603674973
C        12.33669539408924   -2.31346105062372    3.90777632880364
H        12.11179301553097   -2.84339963534720    4.83004904525471
H        12.90960595808512   -2.97445437552897    3.26268798761064
H        11.39701072905069   -2.07324514060551    3.41515895826355
C        10.25194631577825    1.17999357092037    0.32225820561769
H         9.57288002317119    1.18293243717630   -0.53159087189457
H        10.40919420958477    0.14049787296516    0.61843598892167
C        11.58817367126473    1.79689641618564   -0.10202468379888
H        11.44169036811992    2.81699286889724   -0.44777476615592
H        12.02662395637887    1.21905885217420   -0.91147603417954
H        12.28751042843986    1.81779958656230    0.73064854309179
C         7.95528047826797    3.43194745947396    0.19168360145340
H         6.90497759629393    3.61369536079633    0.42941662250697
H         7.99062433772399    2.69072112620529   -0.60819836813609
C         8.59895801991701    4.73032740327162   -0.30400321838446
H         8.58570386361651    5.49091620431021    0.47337986236822
H         8.06174909502297    5.10720691528757   -1.17032004613898
H         9.63290941581038    4.55508071720401   -0.59000252051649
C         7.08713793278755    0.89900465056036    6.64420026334335
C         7.00074196414617    1.25793390978335    8.09745333378442
H         7.92349452532729    0.95750826971142    8.59379283910210
H         6.15738402293491    0.78254577559418    8.58754252815254
H         6.92186404597228    2.34025061724994    8.19177968626420

