45
CSD_code = EZAGES | q = 0 | S = 0 | Stoichiometry = C12H22ClNO5RuS3 | MND = 6
Ru       10.59301637944622   14.59691017411380    0.93515651885684
Cl       10.93446301153962   13.47900876862836   -1.07984275279408
N        11.74595515318121   16.04830715821060    0.10290031027956
O        12.43740327804579   14.00708864725236    1.71361705795870
O        14.54320073622553   14.69777228007638    1.79547159072425
C        11.40217186899047   16.96141658975032   -0.80030212373285
H        10.33996076768596   17.11224452001866   -0.94801160526862
C        12.34045134758599   17.69669768288154   -1.50563698091146
H        12.00968373982391   18.41953091745487   -2.23401743202588
C        13.68964964124588   17.48163020187375   -1.26907627967568
H        14.44273302008263   18.03318379335954   -1.81064591550625
C        14.04517157275680   16.53438647148426   -0.32431267837946
H        15.07102438986539   16.30572208731796   -0.08056658444683
C        13.04797616767150   15.83037233177811    0.33333804425674
C        13.40689586947916   14.75591651709139    1.36225806497838
S         9.75233651699793   12.63809308966909    1.70138731754813
S         8.52643631732995   15.25256362599037    0.20966047795556
S        10.32735784879304   15.77916712695513    2.83740871010717
O         8.40974996382105   12.28047135923373    1.25558907971669
O         8.49441484289194   16.69877552795973   -0.03652864617475
O         9.13221509649771   15.41341112882461    3.59329381916113
C         9.79946946974091   12.37466731876165    3.49936836601911
H         9.23729756492377   13.17500032469245    3.96983855962512
H        10.84045844720667   12.40684864070525    3.79914149369596
H         9.35070760241678   11.41345471409118    3.72102574066522
C        10.85184813578315   11.27462771095924    1.24160146064869
H        10.53807400428455   10.37059855286225    1.75008434742120
H        11.85671297268525   11.57605136839222    1.52014026551317
H        10.78601142139929   11.15766853067505    0.16429563787203
C         7.88761942268526   14.44366011206782   -1.27996370883226
H         6.94051582838733   14.89753966808557   -1.54689558766588
H         7.78480841830864   13.39231299265461   -1.03526299117777
H         8.62121721769672   14.56834348439743   -2.06978055861389
C         7.10371442487148   14.94252436412177    1.29062615995579
H         7.35475580022410   15.29774626107904    2.28529039174641
H         6.91972838898500   13.87575426242351    1.30746567614222
H         6.26651516753447   15.49821267497555    0.88523247037721
C        10.20594002586616   17.57185896057224    2.54661514384970
H         9.47403638582192   17.71819650573795    1.75544097164570
H        11.17741289042122   17.93678521280015    2.23320025239903
H         9.87836381593920   18.05084067286975    3.46194959987469
C        11.69197834880097   15.82187323918379    4.04423506901760
H        11.37177010197823   16.40666572455766    4.89878971706713
H        12.56629792200468   16.25149012031547    3.56866717108619
H        11.90547869226662   14.80070858456368    4.34115435920601

