40
CSD_code = EZAGAO | q = 1 | S = 0 | Stoichiometry = C6H24ClN2O3RuS3(1+) | MND = 6
Ru        2.48711460827085    2.94496704543191    7.92684963131432
Cl        0.78909748860160    4.44458565893104    7.45928575242680
S         3.84685081676984    3.83645590472289    6.32772126373179
S         3.26052622790606    4.29871269936948    9.55800069116982
S         4.08978094738089    1.39433668376047    8.49966424397785
O         4.38585843657933    2.61386891885542    5.72427168228550
O         4.69847900775921    4.42965585148365    9.37609466293791
O         3.69794295745733    0.99754575457925    9.85653095106264
C         2.97995387202791    4.72827238714892    5.00266772171717
H         3.69551441872280    4.99710161100643    4.23385447073802
H         2.51545633892857    5.60559070350871    5.43901598456794
H         2.21188714853847    4.08298279313933    4.58883318553706
C         5.23513379710188    4.98548374758340    6.51706180845340
H         5.76625172963540    4.75167767662285    7.43303704926521
H         4.84205084630945    5.99351543834234    6.56671417646249
H         5.87693049905693    4.85249752482344    5.65324926945146
C         2.58990610261382    5.97817064946496    9.67438165058184
H         3.09259834237439    6.49386638271775   10.48453216683847
H         1.52110597651979    5.91102449163075    9.84107713860342
H         2.77966211362988    6.48208682952058    8.73256042826615
C         3.00051652147428    3.77074254982091   11.27321029932116
H         3.29980431608915    2.72828777405736   11.34401759180648
H         1.95700351295190    3.90108777231966   11.53307764291427
H         3.63674592867487    4.37998452902072   11.90519593928289
C         5.86375901248649    1.73518457338861    8.52447583016705
H         6.01719806283664    2.66159761885857    9.06846532355239
H         6.19197805469793    1.83000825157695    7.49639576291307
H         6.35687921640094    0.91378864120365    9.03134011471374
C         4.15177505304802   -0.12991562746439    7.50872420502562
H         4.89318591003023   -0.79664783715709    7.93308835117592
H         4.41712291807665    0.15758997790278    6.49810287643330
H         3.17604491255134   -0.60235111057499    7.54210603286147
N         1.09581294764926    1.97593267352357    9.28510469240322
H         0.42563105273122    1.35884884374179    8.82500804386793
H         0.54443874062509    2.67140055941387    9.78926390114918
H         1.64451392998233    1.42004155948515    9.94939824185324
N         1.66289739608496    1.73432849661439    6.29107556742000
H         1.31696317737078    0.79753144844212    6.49320668095902
H         2.37804050422429    1.65741342814796    5.56372812094467
H         0.87908715569760    2.28494712505896    5.92641085191699

