63
CSD_code = EZAHOC | q = 0 | S = 0 | Stoichiometry = C28H20N6O6S2Zn | MND = 4
Zn        6.79619752076986   -2.90349546599457    4.01532413750595
S         8.68483989891486   -1.40989358134133    5.06576327776300
S         4.72728195852685   -1.29056731118101    3.98268511882955
O         8.66042866424391   -1.25373294955539    1.41522433894650
O         7.40195922705620   -1.48717671853337    5.73931144999913
O         9.76116560509704   -2.04457545475072    5.77824955291540
O         4.90430642361997   -3.27906207408823    7.04262865771713
O         3.68584793966268   -1.49402197640538    3.01196623723767
O         5.98332038765242   -0.83501501924141    3.41518402086609
N         8.49647159628098   -2.00371873585482    3.56233024307757
N         5.03261469849344   -2.62556198344241    4.86177695088023
N         6.03924006105184   -3.58232412651390    2.30099577132514
N         5.03233249089484   -3.00764376372107    0.42165269034885
H         4.85034959832122   -2.50543333306029   -0.43184015853226
N         7.68569639293734   -4.36918802542994    5.03108959156687
N         8.74428700049797   -4.88212684389693    6.89990339902403
H         8.93310964578660   -4.94065624256235    7.88716072067094
C         8.74703096714798   -1.07798009990496    2.61957883832039
C         9.15188106359111    0.23962636614875    3.21047848370038
C         9.47237818091844    1.39133226880077    2.50986944426240
H         9.48818661610908    1.37441240354901    1.43115983720459
C         9.76428915250686    2.54111297531818    3.22876009807622
H        10.01669330546381    3.45098475081920    2.70410671745719
C         9.73350910930703    2.54044764257338    4.61619395821651
H         9.95998863162932    3.44712395774879    5.15734177313015
C         9.41229202162832    1.38470628063907    5.31952608356855
H         9.38566754204529    1.37005036220259    6.39784192908290
C         9.12385666619026    0.25246404393226    4.59319141762249
C         4.74504224024165   -2.44786855631427    6.16389084225996
C         4.19613305729670   -1.08060627298909    6.44318065931942
C         3.80630212139243   -0.58736648179897    7.67795849044793
H         3.84170972755038   -1.22812296946476    8.54535853061599
C         3.38041985011828    0.73030730670977    7.75749787861398
H         3.07199082924485    1.13680956022017    8.70954900349584
C         3.34751046394428    1.53735518525172    6.62901760502178
H         3.01608676980260    2.56172432551582    6.71254820054159
C         3.73829119297161    1.04252073521934    5.38964590000304
H         3.71669188610679    1.65840657034307    4.50426205302495
C         4.15985295317852   -0.26548744640637    5.32649207641234
C         4.82579963222134   -4.23409135681355    2.24860904324894
C         4.23249992184025   -5.11595549507664    3.14298741469480
H         4.73348186314559   -5.37975960624410    4.06013440284858
C         2.98524733931083   -5.60366770343192    2.81270472919938
H         2.48632614012916   -6.28433939382395    3.48586778944351
C         2.33970261259610   -5.23580544398221    1.62930963901170
H         1.36131368968517   -5.64067816740919    1.41821436707401
C         2.91840325357134   -4.36460154372930    0.72911259302805
H         2.41612409159493   -4.07467569001204   -0.18074801000147
C         4.17085357317017   -3.86900987387476    1.05681727921343
C         6.11198976590677   -2.86025832696674    1.20838839849251
H         6.96317676556505   -2.24463892197014    0.96489960098256
C         8.94909211997475   -4.81024799061737    4.70064370087580
C         9.56090061548126   -4.95642733455635    3.46214762762321
H         9.03244958609935   -4.69394507887354    2.56011965544749
C        10.85935165264479   -5.42176689578683    3.45223793719230
H        11.37309368770936   -5.54135955080691    2.51035464123681
C        11.53742107906236   -5.73824551857662    4.63234953324218
H        12.55509326744750   -6.09391939538567    4.57268282312097
C        10.94141288680416   -5.60166390306996    5.86954486037434
H        11.46870882344413   -5.83858287769574    6.78057271390151
C         9.63697548308479   -5.13258215144395    5.88613912135593
C         7.61486894248894   -4.41614876202395    6.33991711730939
H         6.73005974880458   -4.14128832039049    6.89123720055791

