40
CSD_code = EZALOG | q = 0 | S = 0 | Stoichiometry = C21H10ClN4O3Re | MND = 6
Re        2.76580177469227    0.61215559536897    7.08252617554063
Cl        4.03528439787743    1.43775962434872    5.23731770138339
N         4.78276731689149    4.89583866305782    8.34640010948825
N         4.73950310007854    0.18030826458869    7.78149286170181
N         3.41041109374982    2.47446762131481    7.94868770675478
O         1.29165079040151   -0.32210809999438    9.63453436062184
N         7.47963519598321    4.93815910816244    8.39520961378067
C         5.47769097049063    1.29776139453794    7.92787790677969
C         4.74196045810865    2.53221831020682    8.02291101347197
C         3.44693663426602    4.85422533163481    8.33739840765621
C         2.72795085751397    6.05694812337098    8.50838741659022
H         3.30010044196195    6.96314116641990    8.62612970975955
C         2.73205164853406    3.62618275143085    8.15747692392891
C         5.43070429829998    3.75989605935499    8.22291269772804
C         1.82910092600060    0.01190492267543    8.67506895192772
C         5.36068093904542   -0.98810509207971    7.75963788620217
H         4.73883394798280   -1.86739371140702    7.65380922341115
C         6.88182589355958    3.75723573512794    8.25937826599629
O         2.55579758200753   -2.04828334780161    5.52298490504652
C         6.88211210356983    1.28576417682599    8.02534973916697
O         0.37787711707657    1.75690644561482    5.49165282138049
C         6.74010564181511   -1.10332230771066    7.86214094837497
H         7.19836519232797   -2.07882809104830    7.83298229199456
C         2.57050147011304   -1.08260930451378    6.13361265465282
C         9.59814082762083    3.86108993038113    8.30168334041203
H        10.67304115859620    3.95056882449525    8.31300699236368
C         7.50833068239587    0.03689342320196    7.98205408436712
H         8.58128348502440   -0.04685298013659    8.04538539562445
C         7.59444029583634    2.54305115966229    8.15295423078182
C         8.99219815471092    2.63042278956038    8.17284912512371
H         9.60111004039187    1.74410646443573    8.08028940141025
C         1.32358906793556    3.65007094824598    8.21813403677111
H         0.78556460423500    2.71522826991813    8.13487676188512
C         1.36308528655067    6.04367466473894    8.53246929607179
H         0.81133017349027    6.96219552079244    8.66312451438817
C         1.19557163282358    1.30305785642486    6.14821907539338
C         0.66099651063547    4.83188651536378    8.40075271869064
H        -0.41729961095399    4.83792751785057    8.44661939204700
C         8.78890303897460    4.99101938024521    8.41587759655367
H         9.21766485938748    5.97813637533437    8.52492374477998

