24
CSD_code = EZALUM | q = 0 | S = 0 | Stoichiometry = C10H6FeN2O5 | MND = 8
Fe        1.80236623018983    8.15686463268822    0.38613978983991
C         1.24363757730689    6.52918254233259   -0.11614935057475
O         0.62902393784135    5.77027425546357   -0.70934851027193
C         3.05537901206892    7.89053445351356   -0.80321139966881
O         3.85182641673663    7.67230392707527   -1.59134913522300
N         2.91166539970315    7.37350299483559    1.88444897507248
C         3.63282122483915    7.92075813838923    2.91666496010823
O         3.74101727187819    9.08303026680722    3.19561646424853
N         4.23934848280178    6.86779175893416    3.62141699086900
H         4.82681975648671    7.01243068503402    4.42937030986237
C         3.94449538712405    5.65281517471777    3.06917964640786
O         4.30199342021941    4.57179291553368    3.43623704507795
C         3.04498481312154    6.04303445892431    1.88114488835645
O         2.51809638984672    5.30750558467967    1.05920201187656
C        -0.29106365963817    8.96123986743190    0.59260663157722
H        -1.20752149181884    8.39502242985205    0.59383402193680
C         0.33871670037847    9.51792316794699   -0.55194847006644
H        -0.05474760645260    9.49689388420725   -1.55563654693683
C         1.42115967937057   10.32771363951132   -0.10344589002551
H         2.02335654686447   10.96951077831880   -0.72425059156921
C         1.50556781469612   10.20661880015001    1.29027954854592
H         2.18246908328071   10.73356883186741    1.94017079095656
C         0.44752483203897    9.35135261663482    1.72289788585240
H         0.18456278111669    9.16083419515057    2.75022993374818

