76
CSD_code = EZANUO | q = 0 | S = 0 | Stoichiometry = C29H40I2N4Pd | MND = 4
Pd        2.41164021943507   19.66954347550405   22.27657529115690
I         0.78327197898695   21.24661635917176   23.64991182548298
I         4.55964123233099   21.00581060429315   22.93523785064027
N         3.75738446614976   17.16043150803987   22.43439687678400
N         4.11139422735107   17.92939095715298   20.41719631989483
N         0.34808342064180   17.73520893343640   22.83334182058506
N         0.09949131584344   18.37729052588265   20.76031772087756
C         3.55206442640314   18.21022877840411   21.60962845784495
C         4.65325626578272   16.65935801659942   20.45597189884314
C         4.45526678349464   16.17840973262532   21.76241476071659
C         4.93083282570564   14.93525192708235   22.14891368805824
H         4.81954945373436   14.57410561364953   23.15892243523970
C         5.56152937550835   14.16877421125690   21.18778086388705
H         5.94310791330972   13.19557201735615   21.45484742364174
C         5.70534625965080   14.61991570180494   19.87833846362191
H         6.18182415895936   13.98175895886674   19.15037439842489
C         5.25870687201379   15.86890067084745   19.49168838836636
H         5.37323861114159   16.20865346713972   18.47570239273571
C         3.43891627407549   17.15289631334619   23.84521800083074
H         3.49617334230250   18.19577237551651   24.21366163980730
H         4.23056104200446   16.58517391062755   24.34212390781247
C         2.06844644064941   16.54360096158314   24.25162609796827
C         0.91240161549402   17.57219647492117   24.15104762309011
H         0.10074594538505   17.25650694149255   24.80977045104057
H         1.26828705954340   18.55140231606810   24.51087643251731
C         0.86460162810094   18.51634002866180   21.86402940483478
C        -0.94998980990535   17.52159338650500   21.03768255298223
C        -0.79226500125380   17.11242452817909   22.37243648466512
C        -1.69645704489833   16.24854304825567   22.96994896580828
H        -1.59456275498243   15.94056785530298   23.99872170597752
C        -2.75125811358608   15.80142962740929   22.19767656584712
H        -3.47680371468679   15.13153408315109   22.63232675235603
C        -2.90148277759088   16.19779652852302   20.87114029813912
H        -3.73905028482930   15.82503785082061   20.30221591093460
C        -2.00811127085689   17.06307632492284   20.26891624509800
H        -2.14194294517306   17.37274784184856   19.24500448008065
C         1.74686611430667   15.29633052171236   23.42579882617410
H         0.78295210816570   14.88880984836761   23.72130714252875
H         2.49963839107747   14.52880662796158   23.58377485304505
H         1.70752538481522   15.51791622120497   22.35992055121205
C         2.18401488744651   16.16535416307595   25.73323217729111
H         1.25696254778072   15.72278268428215   26.08921064480291
H         2.39771545080925   17.04484482160764   26.33632923597439
H         2.98129438661613   15.44176062825179   25.88602744855499
C         4.18638703589427   18.87703559891420   19.32788878240749
H         3.53731410480895   19.71447784382931   19.62707867414148
H         3.77064333841071   18.40854526846987   18.42885013354812
C         5.59392912680222   19.46634493864666   19.00156116962280
C         6.07061724467260   18.97275327563131   17.63191679319275
H         7.00924554401860   19.45751868172751   17.37579336601872
H         5.34431699620464   19.21358139718284   16.85727122489660
H         6.24225556046903   17.89949628653143   17.62844568480322
C         6.63178493713786   19.10289885311838   20.06352543417238
H         6.82857821037690   18.03285790733744   20.08628854141924
H         6.30876221399377   19.42567158689247   21.04955485580865
H         7.56605833513243   19.61174115668434   19.84219742133309
C         5.45475370607053   20.99148706155099   18.94190092514750
H         5.14686818173342   21.38843213761129   19.90567381973586
H         4.72409829260016   21.28403093917406   18.18944700098019
H         6.40743086614041   21.44634587261971   18.68485067944678
C         0.45576869900673   18.81804574909974   19.42942991925810
H         0.00254927853620   18.11070720074021   18.72860086652344
H         1.54364022266812   18.73144018974158   19.33815898564253
C         0.04906035049382   20.25089407342087   19.02238217043575
C         0.59910681566121   20.47844592580752   17.61031593318508
H         0.27025782184302   21.44410030255189   17.23570394973864
H         0.24847700679211   19.71047396176091   16.92301180841354
H         1.68740921844678   20.46779168685555   17.61286194687208
C         0.63991413574314   21.29139464642739   19.97475188083760
H         0.67120502939553   22.26668769586196   19.49411608766531
H         1.67386982199451   21.03960781360653   20.28480146780423
H         0.01700676102517   21.38456504240430   20.86143286937426
C        -1.47479873127973   20.38286134198581   19.01020283609857
H        -1.89281355618101   20.13507863830339   19.98369780539788
H        -1.91658207686633   19.72654645758851   18.26250627275354
H        -1.75672319898131   21.40547309518924   18.77329541713494

