56
CSD_code = EZARAA | q = 0 | S = 0 | Stoichiometry = C26H24ClNO3Ru | MND = 9
Ru        7.54398624257043    9.29368271191086    7.94381527971403
Cl        5.33042557740190   10.01265983982014    8.15489191411236
O         5.01281750001934    6.86321527508490   12.35595307858315
O         5.58286660674674    8.82269099264021   13.15205100639724
O         6.85586858618840    7.53298199268703    8.76609145574963
N         7.72283972173233    9.94848103056815    9.82608739969556
H         8.25693342509593   10.80955632360901    9.96414634803695
C         7.75233161667258   10.51317225527999    6.02698881582486
C         5.00510104152895    5.92748237783991   11.38693037761991
C         5.64118923349011    6.12346232426469   10.15925952541282
C         7.13221036559459   11.54816365278075   12.30096358777760
H         6.50472276692336   11.98819894416005   11.53953656131096
C        10.40706249554397    7.38153167767553    7.53743420814991
H        10.02758888529282    6.41943048572762    7.17527234111092
C         5.68053991165247    8.05683161947850   12.22285443214453
C         7.55597386426268    9.15011229222480    5.66497553116888
H         6.76995927985366    8.89691553533262    4.96239538228588
C         7.54122143269082   10.22679830365182   12.16636078208195
C         6.33752623368867    7.38671078473442    9.90933782886572
C         8.34402752375357    9.64793052485479   13.14307637867007
H         8.67055281736618    8.62466006194611   13.02850495524894
C         6.41903070625122    8.29406999896769   10.99415065895262
C         6.84002798124572   11.56932366577887    5.48896160188759
H         7.25884803219202   12.56287753565878    5.63012892036982
H         5.88873282570458   11.51578776108611    6.02538818516424
H         6.64106988173453   11.40688142600259    4.43122483947669
C         9.68765993995841    9.81525297576660    7.36948808479952
H        10.54738877387969   10.09879324681545    7.96678990477951
C         4.90665790883148    3.94542275554182    9.44266183805838
H         4.86193687072408    3.17300827047205    8.69016170018431
C         9.48390621352202    8.46667746097352    7.03659012152704
C         4.32281989644548    4.73725956061609   11.63758172534869
H         3.83709956311078    4.61332879268210   12.59213911008928
C         8.83481516997470   10.83478739945966    6.86912626601848
H         9.06140442094827   11.87520788060797    7.07939919679860
C         5.57843874338783    5.11952596317524    9.18925621369596
H         6.06639470167794    5.29651536523221    8.24320034402993
C        11.82322347175318    7.57637138374212    6.98871261022209
H        11.81175760146668    7.59786035858378    5.90111666060985
H        12.46184094589230    6.75779279205382    7.31073021640209
H        12.25513355528401    8.50778050755306    7.34682166094206
C         4.27882079023265    3.75623967353559   10.67003497022659
H         3.74897813178262    2.83647674902155   10.86690560789089
C         8.71012376338302   10.38056777709506   14.25572066222521
H         9.32852328209202    9.92664931298699   15.01594293862818
C         7.20855176377492    9.48610476538812   10.92493794105763
C        10.40678975410860    7.34278319386421    9.06811746092212
H        10.86493996975949    8.23806824359647    9.48294182751824
H        10.96190804136211    6.47783880635467    9.42318097657719
H         9.38240055609556    7.27453674236998    9.43549010807592
C         7.49044070403436   12.27075165522967   13.42483878832559
H         7.15063654156636   13.28966384658017   13.53747695696154
C         8.39196416695620    8.15332322257771    6.17598780460329
H         8.25104084630604    7.12381218725593    5.86130847031924
C         8.28063817986638   11.68978182886042   14.40126867643330
H         8.55941117662683   12.25470788824545   15.27848976091920

