65
CSD_code = EZASUU | q = 1 | S = 0 | Stoichiometry = C28H26CoN10(1+) | MND = 6
Co        3.98464692191815    1.76006605919539    9.53999241258290
N         2.95683969015217    3.18150754728113   10.29586040266246
C         3.67446169240031    4.31362853471190   10.45264640318606
C         3.08381910175780    5.51053062216430   10.84823823965482
H         3.68797732599610    6.39888966260832   10.93961753873218
C         1.72239378194212    5.53545456801710   11.09439473400279
H         1.23700635960633    6.45203338596036   11.39005909716984
C         0.99554132535129    4.36354607383097   10.93883915043070
H        -0.06789225164287    4.33999366695217   11.11197965407930
C         1.65035144281373    3.21142501683461   10.53443954452713
H         1.11804459704620    2.28351419184190   10.37727029889107
C         5.08688750125345    4.16794930655459   10.12360446007833
C         5.97063433391906    5.34513171806906   10.22374340098247
C         6.45462644497572    5.95396637615844    9.06805691060282
H         6.18283141849451    5.56068561946578    8.10048512588341
C         7.24826630504300    7.08253335450396    9.16648046734122
H         7.61177625559825    7.55675150744618    8.26848995304074
C         7.57334372080128    7.60131428578911   10.40925181198993
H         8.19617415819342    8.47893302366649   10.48177395256862
C         7.09359813208993    6.99686531800024   11.56015148584897
H         7.34311200674451    7.39977956212385   12.52942453656841
C         6.28582361452967    5.87758315705780   11.47191557206158
H         5.91156698124586    5.40290291954088   12.36772235990001
N         5.43949936627954    2.98715970010748    9.73910477760131
C         6.81672277499767    2.71927885836356    9.39289556889426
H         7.13148574156381    1.82224727724641    9.93575055735336
H         7.44087229926195    3.55647538460062    9.72351496114966
C         7.02179599759836    2.49724068858536    7.88108258048414
H         6.27632722254069    3.06710177304064    7.32518302917764
H         8.00285715914439    2.89708054958722    7.62110505101975
C         6.97923499662968    1.03564205657121    7.43832972797745
H         7.33467632659165    0.97795997932408    6.40886943533502
H         7.65685491092904    0.44275066450872    8.05799936251857
C         5.58178023514436    0.40089890774963    7.46827324495132
H         4.90346869194980    0.97895322854395    6.83773680754246
H         5.64925475734869   -0.62231158723176    7.08807911031504
N         5.05433877974060    0.40416280742607    8.81121474451683
C         5.29829000776870   -0.58586906688561    9.60182592701816
C         5.96734322165405   -1.84391394135736    9.21385277847552
C         7.26506070613660   -2.11814516524631    9.63425566006254
H         7.80135168990977   -1.39671849689900   10.23477506970785
C         7.86808599272288   -3.31015957141397    9.27348116357148
H         8.87716743544768   -3.51638064263862    9.59504496422076
C         7.17709195851839   -4.23472729505735    8.50772585808306
H         7.64923133773261   -5.16427089176789    8.23115714186645
C         5.87899057547051   -3.96883163893931    8.10218636126118
H         5.33447307540820   -4.69112069174142    7.51473242221379
C         5.26982774294181   -2.77578477702270    8.44742820068343
H         4.25083510660060   -2.57096509594266    8.14812634821005
C         4.84961172506232   -0.40376025688357   10.97433859205821
N         4.30165779920748    0.80636244583250   11.20770654856780
C         3.88647138432672    1.08416501488329   12.43855229925901
H         3.45731988036890    2.06291741720322   12.60236505708045
C         3.98045243905425    0.17993473315650   13.48316830108491
H         3.62570747575477    0.45489857557346   14.46307587541366
C         4.52336416670571   -1.07555809220642   13.24403858925667
H         4.59374934259919   -1.80614847027953   14.03414687718643
C         4.96979534851892   -1.37080211052235   11.96888197117375
H         5.39665595017613   -2.33130898423087   11.72764424296934
N         2.46967015482599    0.68177300158632    9.36490854864998
N         2.38744956940581   -0.37195203946533    8.85391208486594
N         2.21331619419678   -1.40615657392753    8.42782268477314
N         3.63363843327092    2.49638266485680    7.86502678761040
N         3.48569431775925    3.62453986129601    7.57802024982331
N         3.36959684850496    4.68617432184093    7.19962292322859

