65
CSD_code = EZATAB | q = 1 | S = 0 | Stoichiometry = C28H26CoN10(1+) | MND = 6
Co        5.09943693320240    6.30460644884065   10.67701153581460
N         5.84339874625041    4.71013294243456   11.33972154464916
N         4.36781460220298    6.50610699076480   12.40617170120032
N         4.33140528118177    7.86490369537822   10.05058220515712
N         6.63228495014928    7.38007097810247   11.01773159069927
N         5.83388738945154    5.98112086437360    8.99935507407094
N         5.60625431851714    6.54859616405699    7.99721040758421
N         3.61372185817937    5.30292487621401   10.18419507628176
N         3.12865719215991    4.41349666433163   10.77356633142864
N         2.57993072161214    3.57040130302155   11.29642903313401
N         5.49617532498451    7.05600856878985    6.99192152966874
C         3.94128468029751    5.23490627942265   14.47670919461708
C         4.41992674817151    5.88620986072540   15.61003295360411
H         5.24647003738137    6.57774952527937   15.52533208025855
C         3.84574646761398    5.63218223259100   16.84304937303059
H         4.22272397137152    6.13467268174475   17.72026330055881
C         2.79294017562308    4.73813085960525   16.94942024615515
H         2.34613648670686    4.54578667557548   17.91215318076288
C         2.88964418286336    4.32731748430043   14.58505107106697
H         2.52345518976532    3.82451430326932   13.70090551001558
C         2.31666173393285    4.08929812732587   15.82157161275815
H         1.49815229138836    3.39137928099771   15.90151893634044
C         4.54195216660249    5.46567084821197   13.14635581592080
C         5.38372096841102    4.42700636055952   12.57257538511772
C         5.69772749927899    3.23481205886563   13.22142163395417
H         5.30554797032219    3.04529459395117   14.20772391430627
C         6.49465157604481    2.31052649071865   12.57044302934416
H         6.74187780041733    1.37259318276620   13.04182570824991
C         6.96103360330047    2.61225802193706   11.29811044801867
H         7.57904792121067    1.91833660878746   10.75226322434991
C         6.61270507407413    3.82152725986961   10.71975789534665
H         6.93948724173800    4.08892584763472    9.72464328444269
C         4.86891726102460   10.12887547094660    9.26015057500551
C         4.71845797446991   10.19427133341437    7.87630816613754
H         4.82541054896845    9.29800256495163    7.28029065450165
C         4.45976664088275   11.41282288806686    7.27450332235996
H         4.35081421579508   11.46179360911573    6.20257037021326
C         4.34177854307933   12.56109320265912    8.04116268864651
H         4.13423464319015   13.50757197805272    7.56729461083724
C         4.49479239531397   12.49614006651331    9.41632929664964
H         4.40696371262331   13.38899209489323   10.01579418002135
C         4.76527128745187   11.28486910866343   10.02795895694820
H         4.88809063572069   11.23244674608997   11.10078185195952
C         3.53171719138201    7.59112664287701   12.87070011417422
H         4.07682115573864    8.52836893675655   12.72191006638550
H         3.34357239655591    7.46711132326894   13.94132238587805
C         2.17819863414852    7.66180154282189   12.13660626937972
H         1.86843061769093    6.65625925765059   11.84941863693058
H         1.44215461862689    8.03782898293379   12.84844908457905
C         2.15997729595377    8.58095774589155   10.91710943283799
H         2.54924703487475    9.56454535510262   11.19249869688471
H         1.12524887374279    8.71030228121121   10.59812005362916
C         2.94233756402198    8.04941384298908    9.70911726674536
H         2.53735629848681    7.08151396406053    9.40751589538131
H         2.84485335132935    8.75814189351155    8.88215662137272
C         6.50427151113614    8.57530275085724   10.41183289385156
C         7.56125449143705    9.47791414629126   10.31390304556587
H         7.41497843379280   10.41408462886892    9.79897887840243
C         8.78016460017897    9.14134888669549   10.87269128183696
H         9.62071276668981    9.81359340852656   10.80619157934642
C         8.89748606504175    7.91791491347757   11.51977790925740
H         9.82602451543094    7.61720895917451   11.97697591740372
C         7.80385439248802    7.07053974756844   11.56417592262631
H         7.88058256554463    6.11013688376504   12.05464121636238
C         5.16999666278113    8.82963676188290    9.89663832997731

