44
CSD_code = EZATUW | q = 0 | S = 0 | Stoichiometry = C16H20Cl2N2O3Ru | MND = 9
Ru        6.08195062992370    8.71066638940428    1.48162902687967
Cl        7.31663620750726    7.09385664799580    0.32163449907933
O         3.65546728655394    4.38467130494144    6.16023900507575
N         5.68331201745240    7.25923180122614    2.76877631488666
C         5.23610554013833    6.08165201245556    2.31358673606130
H         5.12622534942468    5.98793518533869    1.23984558675748
Cl        8.01250912612964    9.11957000998165    2.74171290492368
O         3.92142052356127    2.55556344790832    7.34649566867709
N         3.24481423527677    3.51177199012894    7.16907233648627
C         4.95673693301601    5.01480036298522    3.14454544675013
H         4.60670027944614    4.08799390495583    2.71874145506265
O         2.26006662083862    3.86216578855122    7.71504618635356
C         5.14461845802063    5.14671294730779    4.51522427278919
C         5.59215825983617    6.37736292679787    4.98488743417149
H         5.74766736612114    6.54250502238567    6.03875691115058
C         5.84475687762010    7.39799915344436    4.09073770678185
H         6.21942185374389    8.35448837469520    4.43266675744199
C         4.84467962190599    4.02385940131520    5.46476369917329
H         4.68622345576726    3.08129308586441    4.92993819024383
H         5.66041254510573    3.88917423046831    6.18525678554415
C         4.45868496224738    8.02075831224606   -1.46844097704516
H         4.37518708715054    8.55539260533265   -2.41372351654377
H         3.54998524215572    7.44658399471966   -1.30211177258127
H         5.30320016378609    7.33185996691094   -1.54479066860695
C         4.71071132884904    8.97676091257045   -0.34592705057317
C         5.79243903097984    9.90372617381133   -0.43440546699762
H         6.39505624783446    9.92260759613288   -1.33703767303997
C         6.03643906608096   10.82075013796253    0.59090272146938
H         6.82836989987885   11.55498446053550    0.47942564421918
C         5.20439295578928   10.87375023415676    1.74992243196844
C         4.16112143460863    9.94408428908265    1.84803567420549
H         3.47484601124920    9.98534805394560    2.68605903341817
C         3.91864713276184    8.99926806467392    0.80966638628377
H         3.05651599481396    8.34405273114313    0.88353794289576
C         5.39973515777765   11.96318994751549    2.77684578656520
H         6.29927577431792   12.52598642276254    2.50607350680945
C         5.61665937003744   11.38691751459636    4.17639388955573
H         4.74493279348297   10.83056174785204    4.51449684924236
H         5.80457132507064   12.19174014631363    4.88244904940635
H         6.48347734911091   10.72839692210000    4.16237394135785
C         4.20354024902221   12.92065020366793    2.74583002764979
H         4.37462877348280   13.74636758505139    3.43173069698435
H         3.28977257026681   12.41139763003100    3.04409126513975
H         4.06152689185929   13.32679035873147    1.74614535391592

