40
CSD_code = EZAXUA | q = 0 | S = 0 | Stoichiometry = C15H20Cl2N2Pt | MND = 6
Pt        7.40597353475918    1.59793742309705    3.11720558879878
Cl        6.10673673617221   -0.44750433378446    2.89357589527270
Cl        8.94504282034260    3.83638919799709    1.51262957267897
C         6.34624330315990    1.89038658530125    0.34440089975457
N         8.27512960784134    0.78989351418551    1.25320639564233
N         6.09608816650570    2.42342460342837    1.54486618894944
C         4.50080389017091    3.88847978223063    0.56158894297219
H         3.77957448810056    4.67871171982190    0.69992755185439
C         7.35972606417217    0.82369290335103    0.27667803834862
C         9.22498743629088   -0.13019188018202    1.20273968453353
H         9.95767426938669   -0.10945769037020    1.99763530717396
C         5.20240107060890    3.39351020736225    1.64537256303869
H         5.04062289470847    3.79890033061287    2.63534058758020
C         6.30247745429914    2.12985538666338    4.76924913793768
H         6.19724625971073    1.26611787669480    5.42511021428349
H         5.30521204015946    2.39652702447620    4.41087621999257
H         6.71470633913734    2.96021440266014    5.34380511174952
C         5.69533802030955    2.35117476100452   -0.79617819392032
H         5.93834243292149    1.94042334915712   -1.76354401144254
C         7.36492101835196   -0.10929678588466   -0.75484224093346
H         6.58608325988249   -0.09769531854521   -1.50109960326347
C         4.74985893898846    3.36431810841508   -0.70198333239964
C         9.30618510966065   -1.08069435836752    0.20187900692560
H        10.09830898213005   -1.81293242971968    0.21582191936631
C         8.34132577504515   -1.09586732750265   -0.79885682456814
C         4.03418020990975    3.85763967173036   -1.91617812807821
H         3.49552798587976    4.77761100254912   -1.70513037277765
H         3.31791146486761    3.10778955723373   -2.25241883458667
H         4.73674727739389    4.03412998588666   -2.72844398148319
C         8.33534406594888   -2.14375076421149   -1.86206815140133
H         7.90193177105267   -1.76419107396150   -2.78437718405656
H         7.73327982532712   -2.98978291698336   -1.52952097236058
H         9.34236064385452   -2.50347035018600   -2.05860193415840
C         8.45161195780509    3.38991801861530    3.16415628618372
H         7.83195716091387    4.22093542068253    3.51295606098075
H         9.37216525693986    3.36941151613119    3.75088509453486
C         8.75251989196523    0.75332058382848    4.42431234366277
H         9.76335013391720    0.85976541849880    4.02142100293691
H         8.51054730164129   -0.30772793739339    4.50379886870673
H         8.74155513976251    1.18688481551790    5.42390528154796

