73
CSD_code = EZAZEM | q = 0 | S = 0 | Stoichiometry = C32H30NO9Re | MND = 8
Re        1.79015887855134    8.16656716133466   16.83171710222718
O        -0.07141444809402    6.01468952248410   13.52249502719203
O         9.50701392278612    1.59233202569265    4.84420021132437
O         8.76540360556148   -0.63470921896614    3.15709412129921
O        11.36092324088703   -2.12485560958046    3.06873073555610
O        12.87151348962827   -1.46439231250796    5.56435724350398
O        11.69020848291915    1.12075542264176    6.14279741233561
O         1.11806959082688    5.69299082372516   18.55404037345009
O         4.65693412767060    7.20744751930765   16.21405502886517
O         2.63349243232272    9.88554093923033   19.25398604297269
N         7.29490304918619    3.14632999075424    8.80602794065687
C         1.51292487731962    9.07983703515277   14.69536659495033
H         2.26720225852836    9.34740329468046   13.96965978496958
C         0.90637526529810    9.97330935256354   15.60341680552697
H         1.13675059235331   11.02416045676435   15.70275248176570
C        -0.19155126654799    9.30396701048562   16.22116945807869
H        -0.92419007205783    9.76679001684176   16.86538358876141
C        -0.28248403623653    8.01279562188180   15.66361613407489
H        -1.07135090540381    7.29420084055422   15.82624253333293
C         0.78276900898998    7.84435886055445   14.72792247325814
C         0.89684173701053    6.71065451829441   13.78644966098690
C         2.22851680118719    6.48747465502438   13.21096126827168
H         3.03572276492723    7.11242717476911   13.56358210191170
C         2.42925076596778    5.50984088810617   12.31263310004943
H         1.55794604260686    4.93960083724687   12.01030513012231
C         3.67919116922099    5.14004625522522   11.69170213928404
C         3.66490901150594    4.22609691770414   10.62858890592465
H         2.71838008582880    3.82320703952715   10.29749859759886
C         4.82925398592408    3.84470407605059   10.00480931873085
H         4.82364247933609    3.14314658015011    9.18562089590510
C         6.06010972077117    4.35882441463391   10.42605976261076
C         6.08081533116421    5.26430900180060   11.49075414425887
H         7.02668553835242    5.66209711773760   11.83091384376387
C         4.91416872095367    5.64829246923542   12.11223649254988
H         4.95997227280497    6.33467732588598   12.94391712774738
C         7.29408755379909    3.95670118518186    9.78566217631638
H         8.21097631180913    4.41136627722144   10.18510197448424
C         8.44464868874553    2.68133394276932    8.21071809051561
C         8.37742150919696    2.38634372135990    6.84146059857832
H         7.45243927539786    2.59488329773201    6.32886638973831
C         9.47089281379291    1.88016726013124    6.17104507806580
C        10.66928397942500    1.62278122419172    6.88187882766399
C        10.71782467682051    1.88503369479692    8.24185423380351
H        11.61524904394251    1.67610916435131    8.80322528241836
C         9.62348668870890    2.41743587599756    8.90272373935861
H         9.67454762745878    2.58733233882315    9.96776697154306
C         8.29005710000907    1.47187318725382    4.14642096668359
H         7.87350256392764    2.46338822465043    3.91660736004876
H         7.56327652883696    0.89708479017040    4.73250497803237
C         8.57898659661594    0.72298787867062    2.84840541657637
H         7.73614694820227    0.85249925496015    2.14952797741785
H         9.48659998565368    1.14232719071486    2.39279745959373
C         9.30755938050095   -1.41266368369509    2.11734388121416
H        10.00977919053489   -0.82203590627217    1.51558997985049
H         8.50431174482322   -1.78554508293482    1.46267970478272
C        10.07466112266922   -2.58119014037702    2.73147857206024
H         9.53718498305716   -2.92337379501409    3.62593599777617
H        10.13904442396291   -3.41538229301134    2.01391553814189
C        12.09087048643707   -2.98819204851533    3.90412540627548
H        12.43141384561424   -3.87201119714675    3.34030037506395
H        11.47554862015282   -3.32274521879715    4.75000326763904
C        13.28902525418207   -2.21315876578324    4.44766205366107
H        14.09349508916529   -2.90740712564497    4.73597214230177
H        13.65747448584429   -1.55337765161652    3.65256809350317
C        13.57180506459290   -0.26533414757909    5.77603742912457
H        13.64382320035194    0.30966023057369    4.84277836349694
H        14.58866722762181   -0.46760561877005    6.15105048371106
C        12.80005248251336    0.56017552642125    6.80192277864066
H        12.47675505918348   -0.10242960850732    7.61383214433208
H        13.45028451871922    1.34869300795933    7.20834325940860
C         1.41360707593049    6.61582964258683   17.94814037463600
C         3.60561495490560    7.55385259861467   16.50870678770776
C         2.35023537871476    9.20627475943332   18.37728226601177

