75
CSD_code = EZAZEK | q = 1 | S = 0 | Stoichiometry = C34H34N2O2P2Rh(1+) | MND = 4
Rh        0.06981352918673    5.04789797964659    2.69113737148508
P         1.03842899002253    3.00521390342705    2.51264246718551
P         0.80120405263174    5.57085687586822    4.77273704889911
O         3.18490022305558    3.66994101581458    3.80145074878620
O         0.61479203230033    3.15262087422474    5.68167882204715
C         2.00120222576119    3.37156537031972    5.83442150698433
H         2.34265906478031    2.99290698870257    6.80603754357502
C         2.30769442520381    4.84831944832755    5.60180390659537
H         2.56070000654148    5.40698226574277    6.50399725628814
C         3.47001631175347    4.78942030299487    4.60859007139872
H         3.54493974267542    5.66268309964849    3.95959149154594
H         4.42457494317172    4.64403758568090    5.13477710145695
C         2.68932692135100    2.65366585919163    4.64708276474203
H         3.50548194321451    1.99650116086835    4.97271842110225
C         1.54816057202061    1.92385078156079    3.94428567106848
H         1.79497450709716    0.91755488137193    3.60296227856006
C         0.45218492006220    1.92344267510695    5.01187487276766
H        -0.56076823315466    1.89053064449764    4.60898811061143
H         0.59230129914543    1.08821099652287    5.71325489711006
C        -0.24127770231241    1.88136478614064    1.82874557821863
C        -1.55303595196631    2.12862385325373    2.23154532473317
H        -1.75292975059865    2.97178735318591    2.89220763020863
C        -2.59072145205218    1.33318550521825    1.78404418069664
H        -3.60257186479640    1.52907211840687    2.10626793169251
C        -2.32912246148929    0.28538266402520    0.91472438242511
H        -3.13618413229337   -0.33775930057142    0.56072015551973
C        -1.03191332088133    0.04532899346851    0.49350964603009
H        -0.82863614890716   -0.76360012204413   -0.19222890240966
C         0.00964666256718    0.83828490038963    0.94664110800042
H         1.01457053340185    0.65044816697268    0.59892032107335
C         2.41292615037564    2.86561540610603    1.33212508623553
C         3.20562401054741    1.73560065156885    1.16500839612308
H         3.04507706720455    0.85389137152748    1.76839630752116
C         4.22487535469996    1.73881082738991    0.22889837435773
H         4.83691677736409    0.85826312573480    0.10160521089716
C         4.46762622468744    2.86554554450882   -0.53941154121098
H         5.26533922682470    2.86078132583359   -1.26642384253215
C         3.69577792518451    4.00205320172386   -0.36183113206873
H         3.89526697004337    4.88788402451494   -0.94661229173184
C         2.67708771809211    4.00074882398473    0.57230586535928
H         2.07725577818879    4.89336820944553    0.73562135489262
C         1.39918606031271    7.30437801123016    4.69500717745196
C         1.26978396747217    8.23410783316529    5.71868626618274
H         0.77348013270795    7.96375952045079    6.63882839906671
C         1.76021317175551    9.51952752581789    5.55645285029234
H         1.65556529900778   10.23651410539334    6.35703771891794
C         2.38176572302745    9.88787694859425    4.37502293501451
H         2.76464339236772   10.88991709093850    4.25553929535207
C         2.50257720454923    8.97053469525028    3.34255850419877
H         2.97752233113420    9.25791430307908    2.41636480255098
C         2.00783970566882    7.69000169326147    3.50126078696458
H         2.07198137736409    6.97142060910434    2.68467668414707
C        -0.45946077344418    5.60530494141467    6.08109089263210
C        -0.19653685569211    5.78985931159855    7.43387008936745
H         0.81684005861848    5.91192013603543    7.78809052875124
C        -1.23824409574368    5.80138538138208    8.34486900133483
H        -1.02936091021399    5.94670752693623    9.39435252847627
C        -2.54400582667033    5.62121100551902    7.91908787568744
H        -3.35084191018898    5.62961061954448    8.63593264747687
C        -2.81020221170035    5.41501685972858    6.57536920444296
H        -3.82561162382597    5.25592663695397    6.24358436510118
C        -1.77132737404219    5.40392315225893    5.66382470397402
H        -1.96492126290995    5.22287814063316    4.60878957018229
N        -0.81501463561994    6.74086013384143    2.70569199428299
C        -1.23448843663749    7.81002785273487    2.78900559450807
C        -1.74353467883272    9.13865731613847    2.90331801268527
H        -2.68826617263691    9.12793780944554    3.44664333389978
H        -1.90430810906306    9.56534455954494    1.91338869545431
H        -1.02414597207794    9.75197678932622    3.44691597999344
N        -0.59820231923071    4.75462668078462    0.92631550873014
C        -1.01134795334545    4.45318054115507   -0.10548004513193
C        -1.52240318494779    4.06591714088740   -1.38079910588006
H        -1.82922423938173    3.02019401286392   -1.34199081366006
H        -0.74885225023161    4.18405227056230   -2.13960154597842
H        -2.38098271825445    4.68334470410795   -1.64481593269033

