115
CSD_code = EZECOD | q = 0 | S = 0 | Stoichiometry = C46H62N2O4Zn | MND = 5
Zn        2.18529080464023   17.59506733293705    4.61974685152945
O         2.72422524783694   19.35078707882942    3.90729713621361
O         0.57478678153781   18.61739061309756    5.13235247041230
O         3.51087815519159   16.58950259814717    3.56035067284812
O         1.23112501703644   15.88597132867093    4.54148081948377
N         3.13948999173005   17.61962872806370    6.44205409753198
N         4.42694877677332   17.96237219969780   11.26019858507484
C         1.79604219556858   20.22302927342623    3.97358965818044
C         0.57290512691533   19.80481609181199    4.67046092933155
C        -0.53279799644503   20.69867726153101    4.77657886565107
C        -0.37894878105297   21.94179228330450    4.22011466614661
H        -1.17655197916794   22.66499792334854    4.27908357583109
C         0.79541463046006   22.34365941134456    3.55465282250491
H         0.80959776405730   23.34512581288952    3.15534406980389
C         1.88514833239490   21.52569822234605    3.40278855243480
C        -1.79071192655660   20.24440633253474    5.49809087745886
C        -2.87206679359513   21.32806284329574    5.52750572113970
H        -3.17569706661368   21.60684698118392    4.52097568526881
H        -2.52628259231447   22.21464265077574    6.05465589594008
H        -3.74747837343945   20.94664514680097    6.04905792256694
C        -2.35664614564212   19.01037804609946    4.78163859529324
H        -2.60951149287359   19.25474367024927    3.75157338826394
H        -3.25541639151994   18.66372847530145    5.28729558154008
H        -1.62685599082439   18.20666816355132    4.77989805393719
C        -1.42818596470776   19.87965425677043    6.94467281511932
H        -0.69942815890331   19.07516331554132    6.95572353921565
H        -2.31641786357128   19.55499691812080    7.48253141301871
H        -1.00582081904774   20.74193089083527    7.45810268681334
C         3.15842143788484   21.93952168791959    2.68354967286671
C         3.38472250425176   20.99431629988657    1.49542574349565
H         2.55109147214683   21.05843755304586    0.79854625296836
H         3.47234205754060   19.96860610184673    1.84030885607047
H         4.29852996269996   21.26421781935189    0.97021853794622
C         3.09364998111539   23.37597047862892    2.15736099767599
H         2.28496957995959   23.49533028382795    1.43992450684575
H         4.02770090531418   23.61604744729417    1.65360727531685
H         2.95730754758165   24.08619942932987    2.97011256432036
C         4.33943775473009   21.83313493148465    3.65850984158846
H         4.18194415539949   22.48520508210969    4.51619853682551
H         5.26173102675804   22.12759646765166    3.16212488913292
H         4.44270273770960   20.81137755634265    4.01043468207453
C         3.08833595411879   15.43828140008791    3.21279859708721
C         1.78648472015808   15.04142411735819    3.76414039178916
C         1.20697288476373   13.78998907830992    3.40466194008271
C         1.93564556139275   12.99059626743707    2.56249072477757
H         1.55616710783788   12.02533271611077    2.26809828616599
C         3.18864228985463   13.36696873774741    2.04053362743471
H         3.67484736273492   12.66140073547817    1.38606746407412
C         3.78699550960534   14.56636348706760    2.32738851383726
C        -0.15044360725702   13.40706630447987    3.97062801709583
C        -0.06426945665732   13.38804439416547    5.50305519120061
H         0.67962410285072   12.66391552403535    5.83106127958373
H        -1.02760946095453   13.11421671403952    5.92822161645757
H         0.21506533995567   14.36914347861161    5.87410661482062
C        -1.18438021800249   14.45065538536166    3.52522076749303
H        -0.90568910078051   15.43629533726959    3.88472906394885
H        -2.16527045803682   14.20001971935829    3.92374162139094
H        -1.24763366561994   14.47982457950733    2.43895055661375
C        -0.61576155446004   12.02862584829986    3.49387376822614
H         0.07527843730220   11.24993071676943    3.80900058276454
H        -0.71526867561345   12.00079589534040    2.41112349346720
H        -1.58970399841642   11.80917887520608    3.92660149437566
C         5.13335451544308   14.99497332374301    1.76754820873070
C         5.75021769610626   13.93611557277156    0.84974024393735
H         5.92295577139740   13.00478248918271    1.38457883662278
H         6.70902712705997   14.29529977075098    0.48142135170826
H         5.11200736479846   13.74149999944479   -0.00917065454440
C         4.94626886348666   16.28829969793167    0.96222882950828
H         4.25840947809384   16.12165473785504    0.13534116702098
H         5.90079485802102   16.61964080992824    0.55857456542816
H         4.54516071463937   17.07317960429120    1.59584211810454
C         6.09854839204362   15.24793973375085    2.93417600371237
H         6.22953726350940   14.33991654153397    3.52042221134787
H         5.70726490795816   16.02725709831996    3.58056732714178
H         7.06948208725108   15.56105462292406    2.55582844339286
C         4.41397142793546   17.98811594823556    6.50327573596028
H         4.90358454313792   18.13811732934123    5.55240384478757
C         5.08056196214412   18.17181050735612    7.69947571080228
H         6.11707977953558   18.47344557931756    7.70494066376574
C         4.39296748649169   17.96821743205870    8.89664170405838
C         3.05358757826472   17.57868477204256    8.81831198290046
H         2.49503491423793   17.41700228609095    9.72588814710571
C         2.47501963698100   17.41630749451142    7.57604441873026
H         1.44258727640271   17.11899659909905    7.46498184892649
C         5.05028773117181   18.16922269292321   10.17877445502851
H         6.10378333872683   18.47237296269297   10.13470217042517
C         4.93543338843748   18.18516830376331   12.52000059979402
C         5.44026908760951   19.43258460665972   12.92719571074991
C         5.86763732642279   19.56717991334876   14.24056532882305
H         6.26068836735764   20.51582714528057   14.57360104754107
C         5.81531445724125   18.51072473551057   15.12864158222894
H         6.17653988426599   18.63629857462839   16.13848206871909
C         5.29130845493202   17.29450844943926   14.72607597340447
H         5.24411685956820   16.47839137766204   15.42943662611133
C         4.82822300005382   17.12077211256127   13.43503111507767
C         5.46770662558642   20.63275294720792   12.00818704889059
H         4.99368560404718   20.36937841443078   11.05658318051824
C         4.66767338726099   21.79509594483688   12.60218075831073
H         3.65386500174042   21.47520237291027   12.83277901054083
H         4.61749296896296   22.61381635968849   11.88747413707565
H         5.12730940863900   22.16654418416339   13.51396367915108
C         6.90952095098662   21.06093035247910   11.72142365758153
H         6.92219401519360   21.89238570138709   11.01991046568299
H         7.47999872773885   20.23831835514190   11.29391389219895
H         7.40567364227364   21.37501062077344   12.63630415311506
C         4.29242526315383   15.79940920419202   12.93994878415040
H         3.63733785596915   16.01791774317129   12.08881116086202
C         5.45052831661228   14.93274082948174   12.43495756758487
H         5.98827534226116   15.43975060324107   11.63626978887212
H         5.07516746751531   13.98681373689570   12.05106415775362
H         6.14900045348796   14.72732622981852   13.24358586843852
C         3.48306043283734   15.04930106808940   13.99592059409027
H         2.73919316929250   15.70425599856718   14.44354140377837
H         4.12403983712690   14.65941484485266   14.78263977439626
H         2.97001130285370   14.20755736247915   13.53593961170399

