104
CSD_code = EZEFOE | q = 0 | S = 0 | Stoichiometry = C35H62Cl2MoP4 | MND = 10
Mo        1.58707408536981    4.93090107361559   13.64201885802187
Cl        1.81927479097363    6.90388647169227   15.24300829166759
Cl        3.36487411946534    3.84502017247098   15.00329891198130
P         3.03079640035390    4.36807947583293   11.50444801464358
C         4.41665143778817    3.14724946157346   11.88429129829576
H         4.79592784964540    3.35034774383134   12.89080214421006
C         5.53189192165788    3.33346883837451   10.85575870408336
H         5.13249614646180    3.13918751652120    9.85580601778742
H         5.88977646087208    4.36628832667526   10.87317982717058
C         6.68704301752172    2.37988040280459   11.14334608168014
H         7.47663729233878    2.52048627921188   10.40131614838220
H         7.10568701912027    2.60756654764551   12.12678231909215
C         6.19977965197780    0.93489385335771   11.12490299195338
H         7.02660053176208    0.25892048301896   11.35345501881978
H         5.83256383051073    0.68965547763260   10.12518552978438
C         5.07617169740575    0.74616326950753   12.13861959548226
H         4.71409931894175   -0.28419123867975   12.10835499684822
H         5.45661766572682    0.93854294692760   13.14421925376860
C         3.92339778058994    1.70519203121428   11.85450041210315
H         3.15528471052157    1.58070120324139   12.61814047132530
H         3.49176428902473    1.48441638894444   10.87311628148075
P         3.64649330243991    5.89733535715255   12.83463029457765
C         5.36168012340484    6.07594771582241   13.55009394488153
H         5.75248761011121    5.07334664545973   13.75736989190163
C         5.19074949134611    6.84260835627842   14.86120698764813
H         4.69701836502943    7.79959668144364   14.65077634165643
H         4.55054075230270    6.27259831811859   15.53883779834458
C         6.54180902470934    7.09611694144488   15.51946201001913
H         6.39494429889442    7.66117891192246   16.44154466187034
H         6.99960003167310    6.13936865348825   15.78148322813219
C         7.46255889543531    7.86049423640746   14.57470460500469
H         7.02634087036222    8.83760226120313   14.35409752298824
H         8.43323096448864    8.02432581844657   15.04712578809593
C         7.64145565253694    7.08141431534523   13.27645505626339
H         8.11952859099276    6.12251709978964   13.49121230461371
H         8.28937730185907    7.63268837205735   12.59120319577790
C         6.29176946480147    6.83102082852688   12.60774963842189
H         5.82984511287884    7.79181935714199   12.35145088681572
H         6.44481136404376    6.26916643342595   11.68364058163441
P         3.07886434772400    7.90406954623441   12.17557826480418
C         2.97436660970987    7.64306913504468   10.31248404494121
H         2.35238622853296    6.75388653962079   10.12694234793524
C         2.33416759594568    8.86997009493528    9.66936012484090
H         2.95206274870747    9.74790132511208    9.87900406424549
H         1.34480112657122    9.04840676989270   10.10200837423646
C         2.21354576414996    8.67737092581148    8.16056750590680
H         1.55692076187373    7.82812898313921    7.95661675695112
H         1.76488938735682    9.56493577583383    7.70919668053972
C         3.58567314637314    8.41493524294939    7.54806178485300
H         3.48864408235564    8.25560563177837    6.47232095041767
H         4.22341115461267    9.28876271496020    7.70099150123986
C         4.23155415202636    7.19597506289450    8.19915007027858
H         5.22191128576725    7.02488642211390    7.77242692224855
H         3.62319506407770    6.31060972949117    8.00091211857889
C         4.34934912887978    7.39013403667965    9.70816322734769
H         4.77433489390710    6.48821454591188   10.15818297647867
H         5.01284605482858    8.23239049123890    9.92140786237994
P         1.09781653776752    7.13955574282845   12.69206937842965
C         0.13047889066998    8.59742737585574   13.34802508788112
H        -0.29626614991687    8.28787265455892   14.30764895939575
C         1.04200896080646    9.79564754469592   13.59885856938423
H         1.49365586212904   10.11101339036406   12.65118690468924
H         1.84599769084069    9.50568157654086   14.28030264268813
C         0.24590835255985   10.95277583930670   14.19225759365545
H        -0.15928019544028   10.65099133053731   15.16044642234326
H         0.90647213313071   11.80616027071376   14.35672364368882
C        -0.89658035504164   11.34869427632781   13.26202079157450
H        -1.47795015684872   12.15845600258993   13.70711372707220
H        -0.48575818602749   11.71196179457307   12.31676060885674
C        -1.79984118124085   10.14966674695312   12.99236246770969
H        -2.60184394388281   10.43079062468639   12.30598744898112
H        -2.25860582901663    9.82281457245779   13.92857070584708
C        -0.99488790272179    8.99712372184618   12.39665520892372
H        -1.65908743689083    8.14967173608612   12.20353168286979
H        -0.57072574164636    9.31198825766139   11.43872620470382
C         0.23834783239829    3.14867298838348   12.71992329767500
C        -0.46352702300901    4.38607340623316   12.75794299186425
C        -0.58703611581382    4.78945400535357   14.13366723757361
C         0.10789191163980    3.82323577873976   14.92268246193022
C         0.59525010439961    2.80070683959794   14.04354436968169
C         0.33508923680060    2.27116453593571   11.50995865519331
H         1.19259132629358    1.60389391198229   11.59003425440484
H         0.47660579675763    2.88130026197878   10.61467099730871
C        -0.93863543992801    1.43275229927343   11.36771966366973
H        -0.86569800888725    0.78278718928195   10.49896049578127
H        -1.81030133357628    2.07110788645429   11.24923753748876
H        -1.08471959336810    0.81603771367312   12.25183585009630
C        -1.23294744858071    4.96200153249491   11.61299050006135
H        -1.40479111822344    6.02839409318968   11.75402851172882
H        -2.20649552249029    4.47399879605266   11.53109973500540
H        -0.69734708061504    4.82244619782966   10.67525781235620
C        -1.56053921164447    5.78263913522309   14.68841262979356
H        -1.88692845553204    6.48750164530904   13.92668942735561
H        -1.11757954133526    6.33865078063211   15.51440592941636
H        -2.44052382114743    5.25854250005580   15.06839528621794
C         0.09223728696006    3.72599296580695   16.41523326165452
H         1.01563489610370    3.27108963425756   16.77193261693152
H        -0.74955923490969    3.11544586473944   16.75041128478685
H         0.00399081062375    4.71444605616849   16.86308165495079
C         1.13977896179250    1.49195128096510   14.52086576849437
H         2.10577241501361    1.63015765182882   15.01011309646483
H         1.25991739568380    0.78783507979072   13.70056043955657
H         0.45336532752951    1.06090465071573   15.25151369282919
H         0.56786952909205    7.19946585706731   11.38201100567425

