66
CSD_code = EZEFEW | q = 0 | S = 0 | Stoichiometry = C27H30CoN5O3 | MND = 6
Co        2.21232581271367    6.33900719832257    8.32460717481335
N         3.20644136693390    6.18395172984411   10.24485829810010
C         4.46963451789445    6.87882437127816    9.95206619516692
H         5.12720202329269    6.18217080210300    9.42624399120713
H         4.96537174505030    7.21605243271591   10.87174801582393
C         4.21691321656095    8.06956374386095    9.02888774574888
H         3.60406261467826    8.82100687499195    9.53782614159811
H         5.16839407056316    8.53197072853021    8.73568336947702
N         3.48990626704614    7.58098157835186    7.88559467805256
C         3.84597263828815    7.92518128356019    6.69387963058367
H         4.70440811380676    8.58971377026406    6.60921820233612
C         3.20573610676661    7.53011326790985    5.49365253293136
O         1.43372333460745    6.40253082945194    6.65507874094415
C         1.99306398784313    6.79334322324783    5.57240126472871
C         1.31558767483751    6.46167600965844    4.35482500966333
H         0.38535335177449    5.92326883379253    4.45246096563949
C         1.82114037311714    6.80512579687280    3.14880767797390
H         1.29516815468962    6.54130087944031    2.24189850396915
C         3.05126844804175    7.50430162468252    3.03295763906360
C         3.57053731608135    7.82400748137498    1.76837787351635
H         3.00868409313500    7.53239438144704    0.89229127501023
C         4.76212110331844    8.48807788200899    1.64064289955726
H         5.15665227085760    8.73260236742162    0.66583903825848
C         5.46858959339943    8.84449738775098    2.79035255735430
H         6.41278097816333    9.36173019406067    2.69707728935647
C         4.97975641481136    8.54329573479242    4.03699249569243
H         5.56958393596110    8.83115844833943    4.89345260595755
C         3.75411923584505    7.87252619141992    4.20853237366686
C         3.46464907245139    4.77285601320281   10.58180180610946
H         3.97527229398098    4.32016957803877    9.72956793263105
H         2.50046333566913    4.27567785461910   10.69047827475006
C         4.30472411313923    4.52722715754994   11.83583810618994
H         4.46921205386093    3.45704120384073   11.93587321115184
H         3.80299460497072    4.87233319040234   12.73555180111977
H         5.27620366728769    5.01041434638845   11.76757966518978
C         2.51856646860104    6.87847243764874   11.35273374478929
H         2.27801064358192    7.88214239914866   11.00240425954656
H         3.20356746305798    6.96719997145735   12.20763994230804
C         1.22235642155241    6.21647597094926   11.79898385881197
H         0.67311448294289    6.90863428834944   12.43233630427243
H         1.39910931845012    5.30597336321968   12.36633562904153
H         0.60945941417552    5.98562829523743   10.93336793938998
C         0.82094354502745    3.89023611629472    8.26579377359825
O         0.91703830629102    5.03565245241790    8.78376155620956
C         1.77556297847353    3.27995206915705    7.44536753783312
H         1.53653601399650    2.32642035640082    7.00452928084638
O         3.39042602301289    5.00145574110939    7.57608710283130
C         2.99240212433183    3.88426064942649    7.12719446593268
C         3.91003100221669    3.19572247176899    6.18277767506317
C         4.08335198749781    1.81507652218552    6.18206583047719
H         3.56294591713053    1.20618170860092    6.90654754825951
C         4.94081818183548    1.22427246722127    5.27196399544601
H         5.07630099539110    0.15242988532179    5.28017280278572
C         5.62556635639315    2.00104555459984    4.35127334508820
H         6.28840793803892    1.53394772631231    3.63773877729074
C         5.46186034392578    3.37667510078946    4.35089891468565
H         5.99354494385224    3.98723775115385    3.63582113529938
C         4.61667807087623    3.97250952879654    5.26751831208173
H         4.48027567518240    5.04402420637788    5.27539804704701
C        -0.43880357263323    3.11333083516811    8.57299604207051
H        -0.19958385411807    2.10939411359985    8.91449547953138
H        -1.03592572313094    3.03443390254375    7.66716484414020
H        -1.01812780888702    3.63631950238177    9.32876567404208
N         1.11583614068102    7.69182414674528    8.94401844791070
N        -0.03315436157760    7.83376501558955    8.75676404941396
N        -1.12803333761134    8.11581105849079    8.68013870061933

