123
CSD_code = EZEGIZ | q = 0 | S = 0 | Stoichiometry = C50H66N6Pd | MND = 4
C        13.74461383823238   12.84817491050382    4.41898504929909
H        14.65693591348866   12.56322269451393    4.91384383419901
C        13.58655233621051   13.27968603505776    3.10076792750680
C        12.22410880020416   13.52504734157769    2.92112227965348
C        11.59443713782919   13.21183655647174    4.14869595044194
C        10.29187360560856   13.33856730149325    4.72574899566682
C         8.91825990570056   13.52019420174789    4.31106945803470
C         8.16116373102209   13.59595583880984    5.45635320574168
C         9.05058024902137   13.43544326495119    6.58069331017462
C         8.78170252446621   13.46439326661816    7.93700530315165
H         7.77753377680324   13.70664962747186    8.25282262593114
C         9.74925924439044   13.26582717002215    8.94500848278395
C         9.64784266704513   13.49327022004562   10.35048552371620
C        10.90194227674967   13.27500125221873   10.89777568109626
C        11.76451123884682   12.90881060151086    9.81689502397003
C        13.13151769089086   12.52335186665226    9.58070957398266
C        14.34604106891791   12.50268520170732   10.35350881170770
C        15.32436766073569   11.98417036442835    9.54206239297855
C        14.69700707358337   11.63243343403695    8.29505546853310
C        15.25308379468839   10.84679109647089    7.30164560674145
H        16.32011323313863   10.68244115087274    7.32766406122496
C        14.53530494380276   10.19376785121637    6.29096338454634
C        14.97750009967932    9.58136673640670    5.10022922305392
C        13.84603176812368    9.12420882109821    4.41499077400459
C        12.73126318377774    9.39851566257932    5.22046665132145
C        11.31951090990269    9.15633567059366    5.09126286339622
C        10.55562637239787    8.07925818525201    4.65955342645050
C         9.19632281624670    8.45086253089963    4.80703462902253
C         9.18190650998706    9.72134204337151    5.33558386770787
H         8.35982101449309   10.35947102178513    5.59062890396850
C        14.69641457083639   13.51936212679624    2.12781583555638
H        15.48120820249855   12.77531799733452    2.28233892929736
H        14.33310149181439   13.40977672027200    1.10433723977886
C        15.29707846570629   14.91532906923304    2.30973814270172
H        14.53902683893274   15.67946140207924    2.15211856002638
H        16.10896629568561   15.08025520151752    1.60379927636180
H        15.68537434812552   15.02735903567778    3.31966436960960
C        11.63644520012303   14.05133155640023    1.65281122243778
H        12.37830122989634   14.68265628096226    1.15850015900931
H        10.77622747968802   14.68513486730588    1.87293971855509
C        11.24156020348324   12.92030705948913    0.69959360677981
H        12.12225762373569   12.34997387385075    0.41187468215972
H        10.78029232642220   13.32141371693037   -0.20108149789919
H        10.54256383416060   12.24007402651636    1.17794870539183
C         8.37242498443728   13.47325540417769    2.92272902645778
H         9.09463186282898   13.86537699343294    2.21424741677345
H         7.47254754075947   14.08958400598537    2.85919870439435
C         8.02403319480273   12.03308882784197    2.53519325032150
H         8.88626301749388   11.38364571756619    2.67470657609464
H         7.71083893356928   11.98452327791919    1.49432409361544
H         7.21483832199669   11.65688641784347    3.15569541275668
C         6.68435656129666   13.76212564172197    5.59153330068874
H         6.26397353529708   14.13885788069057    4.65776872854066
H         6.47775243849853   14.49828484183537    6.37326794408317
C         5.99467710669126   12.44470570363467    5.95709428971948
H         6.13295898328872   11.71028583990173    5.16658216369448
H         4.92697075582004   12.60178374484715    6.09427120017525
H         6.40759234347540   12.03917421504253    6.87833244025595
C         8.38420844846710   13.85306466841657   11.06109868898048
H         7.82704911626430   14.58218237803483   10.46741804012881
H         8.61036936067393   14.31414129326355   12.02309408915922
C         7.51229902283753   12.61498435988856   11.28841104923897
H         7.26401431143873   12.14417590537197   10.33983126863473
H         6.58864265894706   12.88615267011310   11.79553356347867
H         8.04241063871829   11.88691670105352   11.89875755145572
C        11.21229509571219   13.44819564555607   12.34962248620394
H        12.04396980841311   12.81107882350669   12.63888289562600
H        10.34538700953473   13.13477867548371   12.93634367505445
C        11.52752205067366   14.91084578780374   12.67880389777730
H        12.34316099462067   15.28052930350397   12.06036599310932
H        11.80676045756971   15.01597019198533   13.72542899577772
H        10.65948436254846   15.53761188035364   12.48706935344058
C        14.56631034631497   12.94699222994375   11.76213923875540
H        13.83232953131488   13.69989609184206   12.03532325357557
H        15.55327819386847   13.40986194332838   11.83878876898254
C        14.49769662979290   11.76402044268493   12.73270620827971
H        13.55192000446050   11.23515020094531   12.63164514790252
H        14.59839159950568   12.10780924624879   13.76014044628022
H        15.29620498737447   11.05497688513404   12.52517542890623
C        16.77247880336767   11.79160253617146    9.84747264883911
H        17.09317014603950   10.80252463653176    9.51106712607879
H        16.93959686695855   11.84427622175900   10.92367133031010
C        17.61736686700145   12.86423889887577    9.15435668665918
H        17.46806214915373   12.83427455538428    8.07765266085117
H        18.67373171706478   12.71184975734841    9.36489537003014
H        17.33241332523841   13.85295252664439    9.50703979907082
C        16.40701787337659    9.45953351218760    4.68304416269184
H        16.47567323119866    8.78025090194410    3.83236744436105
H        16.97758757963106    9.02051048263925    5.50773983614256
C        17.04263113133152   10.79988582084045    4.30911276301525
H        16.50249886409129   11.26029976539321    3.48637448830877
H        18.07739880419888   10.65427539961291    4.00592762680432
H        17.02252542780774   11.48612895798573    5.15182290570225
C        13.79717518158600    8.59835739328986    3.01602910431574
H        14.51261033452709    7.78181074910852    2.88634254436029
H        12.79738384686800    8.21806214530804    2.81307965063927
C        14.09667396740710    9.70911982298824    2.00626438834713
H        13.43805338987019   10.55667049093157    2.18087111596566
H        13.94180055889728    9.34656528932752    0.99236001139864
H        15.12341197717838   10.05033074832965    2.09542976836899
C        11.05044408930984    6.71905389326738    4.28579446248439
H        12.12773246029169    6.74823268482049    4.12902276641720
H        10.57493169503929    6.38694566175677    3.35891147102573
C        10.75616013006005    5.70530038349043    5.39456709662439
H        11.24088988147523    6.01303082590332    6.31832966551318
H        11.13184648239871    4.72299151611474    5.11677523672591
H         9.68820327921902    5.62865822630052    5.57715179199700
C         8.00555700193988    7.61342467833517    4.45738383466593
H         8.30149939701955    6.86788474518417    3.71638614606262
H         7.66215594403386    7.07384848305280    5.34663297697735
C         6.84676633793118    8.43782876937189    3.90349477547687
H         6.46446043489751    9.11977150163545    4.65862021262922
H         6.03392950629881    7.78461546513543    3.59298641937905
H         7.17274268456686    9.01846361920394    3.04381041176783
N        12.57102163651277   12.80389252855031    5.04902223780546
N        10.30565958978814   13.26811117447103    6.06817168493423
N        11.01834461697690   12.87971255315719    8.68552187322376
N        13.38504636901632   12.03800088975931    8.33933868770678
N        13.16722115626185   10.07314786709019    6.31566726791949
N        10.45671645090021   10.12661107056072    5.53233081366242
Pd       11.90381729731659   12.66197743759358    6.97995895349873
H        10.75202354308818   11.04996336595567    5.87008948892504
H        12.60765026646607   10.27236335507514    7.14315446421999

