78
CSD_code = EZEHOI | q = 0 | S = 0 | Stoichiometry = C27H46NiO2P2 | MND = 4
Ni        3.65622918216033    6.46417030946609   14.74745327815068
P         3.98367410364233    5.56485332992816   16.77285327896049
P         5.66808308492950    6.08412887865828   14.15081603089751
O         1.80566516126699    6.36454370536671   15.11153975411756
O        -0.26250217335151    6.45932995396830   14.34916890772144
C         0.93680438362747    6.56196759924781   14.17816938575457
C         1.58831608455050    6.89706035401645   12.83278607944565
H         1.55386453049298    5.99357588966400   12.21923600170013
H         1.03249013266249    7.68065233458638   12.30816911381972
C         3.03359819176395    7.31589495822316   13.11743892831833
H         3.04800517930594    8.36873772501803   13.46633189034114
H         3.63319516668646    7.24614219576817   12.20148620049721
C         4.02552153175298    3.72870553438554   16.45799273951148
H         5.05696507535582    3.38704178298790   16.56043584093766
H         3.41008904942686    3.21721204950313   17.19883675363067
C         3.49994864570815    3.47012294834320   15.06880994148232
C         4.22835686837206    3.73830036927951   13.97694471586103
C         5.65813787380855    4.22396685286799   14.03525147671397
H         6.17844409634566    3.91286971858303   13.12756743152687
H         6.18545225114524    3.82287039656784   14.90085120437017
C         2.08648541030658    2.96361997568807   15.01842027225141
H         1.39624193388262    3.80771669779905   15.02874230662385
H         1.87294560399020    2.34579155604667   15.88849615632334
H         1.89447808403840    2.37197060891808   14.12854201338961
C         3.72156122790184    3.57417605310955   12.57064286295937
H         2.63921170619114    3.53382473080780   12.52973037159156
H         4.12595067834728    2.66536524000712   12.12046496040313
H         4.04961047265910    4.42355105125388   11.97261905888243
C         5.45616273178334    5.80139515619036   17.89831117496794
H         5.63798607048032    6.88050978859333   17.93975553320893
H         5.18040192305016    5.47159697980210   18.89972654893393
C         6.69008823807386    5.06515754410490   17.46064765709680
C         7.35848107523364    5.36390062951566   16.34187019692932
C         6.95810873292906    6.49666776835233   15.44403960450996
H         7.84326635732053    6.88269277445739   14.93682859650148
H         6.52345054944374    7.31624446285147   16.02316067938801
C         7.11334209767008    3.99666072993205   18.42941441543869
H         7.87932534296062    3.34030962456516   18.03001924530744
H         6.25698860343275    3.39215968507261   18.72612743458530
H         7.51248702519017    4.46489197021960   19.33017045597856
C         8.60266569219053    4.64379236336992   15.89389028002969
H         8.59370130820122    3.59041637459499   16.16204691584465
H         9.48465500198341    5.09707672736921   16.34826531908191
H         8.70643488734660    4.71351274589422   14.81382291266247
C         2.54190642530648    5.77560075007872   17.92129370546605
H         1.69487151061673    5.41835344205669   17.32289015057817
C         2.33491107515176    7.27079117434151   18.16539280919400
H         3.16037390097341    7.67013573904790   18.76375232734750
H         2.32388402835095    7.78820315549198   17.20221120318918
C         1.01326029550671    7.50191973843269   18.88986065350053
H         0.87534981903845    8.56761805673579   19.08488260256597
H         0.19674465116829    7.17060292778413   18.24600900258123
C         0.97880648355395    6.72480255410622   20.20307597864692
H         0.01354544487741    6.86509472384977   20.69361424693205
H         1.75208112493388    7.10958389332611   20.87398258415522
C         1.22122841992938    5.23854915387231   19.95479484780472
H         1.21219273702528    4.69540892782930   20.90329601255793
H         0.41818430736169    4.84052170985294   19.33124184198210
C         2.56171448479244    5.02843324658609   19.25091010725471
H         2.73594817735620    3.95933087556975   19.10665238940322
H         3.35197671647739    5.41646880442065   19.89856071463114
C         6.48805324030667    6.62713861537340   12.56590727386888
H         5.79690999454597    6.30464066303955   11.77543643348429
C         6.56466830889874    8.15458583767782   12.54515099395322
H         5.58474619121237    8.57571138540109   12.78022038102022
H         7.26486882187053    8.49747501775788   13.31112444295846
C         7.03786602879058    8.64379758224513   11.17917002702501
H         7.10545259700875    9.73326451336885   11.17787610090712
H         6.31034656070150    8.35333812002980   10.41802879217671
C         8.39662703118457    8.03770925771537   10.83952790600963
H         9.14018676050044    8.38952842586535   11.55888569383487
H         8.71311754977083    8.36416575793075    9.84720937841887
C         8.33007247512333    6.51391524417360   10.88616787609428
H         9.31300875959197    6.09176173025897   10.66552697746654
H         7.63462676684143    6.15750331721005   10.12288349523485
C         7.86299745561903    6.03702901786966   12.26143451632859
H         8.59093171627872    6.36566809890058   13.00587448521859
H         7.83457096506932    4.94550041685543   12.27496012155888

