77
CSD_code = EZEKIF | q = 0 | S = 0 | Stoichiometry = C40H30N4O2Zn | MND = 4
Zn       13.57561462819895    3.04720443075305    1.12590076165018
O        13.85101657286889    1.47800059589770    0.08750768709454
O        15.05076956036515    3.85775971971210    2.01036373210469
N        12.45448403905089    2.65034665713200   -1.32275660254108
N        12.48492533289069    3.64604586182306   -0.41875823470429
N        13.46918148858280    3.97505277400319    3.68305678635929
N        12.63492657457990    3.32728873150720    2.84993000280562
C        13.91054636900958   -0.65509689781394   -1.68955561492075
H        14.43133539991443   -0.72389208704963   -0.74649789952855
C        13.92887569709029   -1.69895856753759   -2.59487099241907
H        14.47040948808425   -2.60476916369145   -2.36375520356650
C        13.25373515879408   -1.58348578562768   -3.79941319859118
H        13.26882507054294   -2.39947810692584   -4.50741341048044
C        12.56049048676729   -0.41995867185389   -4.09750463575166
H        12.03724290730174   -0.33218919410189   -5.03875911885048
C        12.53864680285337    0.62734149333577   -3.19672994131103
H        12.00955060327557    1.54176164297653   -3.41258409910115
C        13.21510702935712    0.51507071660468   -1.98398085714293
C        13.19858233947574    1.61345802805008   -0.99905426160978
C         9.99539274213981    3.76991914211488   -2.11160318021601
H        10.27135606384769    2.76808538866274   -1.82773992188423
C         9.00438570010516    3.98425986425254   -3.05027464712349
H         8.50634018724250    3.13912729246006   -3.50276120381096
C         8.64934350895461    5.27255939603245   -3.41536636348744
H         7.87779738620540    5.43564189590004   -4.15343956749768
C         9.29159583639631    6.35287340824338   -2.83124351635053
H         9.02341499012069    7.35988924883980   -3.11586687010928
C        10.27588141488969    6.14727478580104   -1.88475402926723
H        10.78070240895710    6.99283250453205   -1.44047287459648
C        10.64300426175049    4.85080713718042   -1.51126326202305
C        11.68831060233137    4.66545259940029   -0.50488752046002
C        11.86386187395281    5.68708049030294    0.53658190556029
C        10.75589437809128    6.20246147406758    1.20873294971997
H         9.76557097766626    5.88917680627101    0.91229435108487
C        10.92495605932177    7.08480554154890    2.25789661833341
H        10.06156472391957    7.46291861589260    2.78544922025959
C        12.19838020293199    7.47503309999293    2.64287120642997
H        12.32814264572509    8.15814051757961    3.46907253483634
C        13.30340573171105    6.99485460616597    1.96043988844799
H        14.29647655652531    7.30720988386321    2.24805007876646
C        13.13984582322616    6.10765271867250    0.91154520674316
H        14.00099188325834    5.76528009463141    0.35399810982811
C        15.26552337760531    5.18915585745921    5.38866279777814
H        14.27746695262270    4.93414972384478    5.73722211941966
C        16.17091780984994    5.83689933423809    6.20677392539642
H        15.89208206652626    6.10012772584528    7.21703833348045
C        17.43806841433186    6.14874266856944    5.73735780084540
H        18.14321031666997    6.65410409855388    6.38144414457787
C        17.80095486105914    5.80981534911026    4.44381330144321
H        18.78884823580752    6.05098904166813    4.07905768871098
C        16.89968258270921    5.16230523509807    3.62039035769572
H        17.16263144362967    4.88860929403611    2.60991692569942
C        15.62559345117657    4.84804359588830    4.08682738546171
C        14.67352555089393    4.16872390741184    3.18742034845057
C        11.09493367135795    1.25000334835007    1.59614392926088
H        12.00535569958969    0.82506477749919    1.99636282351768
C        10.40667036840630    0.59065568647361    0.59336412831138
H        10.80619017228900   -0.32438482019592    0.18160930688494
C         9.21375680798660    1.10586917938789    0.11493907771899
H         8.68382374522853    0.59682879314911   -0.67634026682313
C         8.69633936406214    2.27109701012836    0.65954833007743
H         7.76297404241209    2.67127761227208    0.29155993019692
C         9.37735365518373    2.93099538214987    1.66385681344375
H         8.98140999082661    3.84393254298677    2.08403067937052
C        10.59635646073123    2.43862808868182    2.12926984611417
C        11.37279701950511    3.19940744712524    3.11796473864120
C        10.68415267241525    3.76453796162562    4.27821695785778
C         9.55402183915423    3.11588294365032    4.78528665232247
H         9.21569039001338    2.19820843865109    4.32636944117356
C         8.88346585059428    3.62635958989972    5.87921908727023
H         8.01640672077441    3.11048581767674    6.26527407742800
C         9.32017221661860    4.79568959487111    6.48150304575808
H         8.79275128640979    5.19460836822894    7.33550453667696
C        10.43735929355801    5.44706939170683    5.98490438726744
H        10.78122914010029    6.35901900872699    6.45088917521025
C        11.11986485919369    4.93726388958411    4.89702716334310
H        11.98843816241582    5.44399542604183    4.51078699734157

