39
CSD_code = EZEMUT | q = 0 | S = 0 | Stoichiometry = C14H16N2NiO6 | MND = 6
Ni        3.41830068939296    6.06302606681453    2.13422259337951
O         3.30774927744437    5.00380351917187    0.54902406303850
O        -0.85201096939720    2.30343819962783   -3.27967734309042
O        -2.24880877448696    3.51296369512495   -1.98846147682429
O         3.83880005027197    4.10555467272524    3.41558536322473
H         4.79670800860590    4.05407045890883    3.33693195854489
H         3.47022271266366    3.44938599801207    2.81430243788140
O         5.62803919224783    5.99305057149085    1.79200278488138
H         5.57740778962559    5.38459264545534    1.04362634436010
H         5.69817965367855    6.87671219341228    1.40910482628935
O         3.85681711750160    7.89310879041648    0.55186363175897
H         3.11491858201718    8.49183612885575    0.67052391028945
H         3.64428461571756    7.33584249953716   -0.20725037114566
N         1.47672352396319    6.21749862128335    2.25192036555104
N         3.40557399293145    7.11517530329095    3.77602588504563
C         0.91092683473547    4.84836639056398    0.34594331500230
C         2.25420227072393    4.59886599528862   -0.08062753333015
C         2.43137840027562    3.85112218591314   -1.26717371153394
H         3.44523588280538    3.66139492936591   -1.59128303781708
C         1.36256913972555    3.36893969937328   -1.97850994482481
H         1.51321673049423    2.78722794883663   -2.87566475437190
C         0.05613238503243    3.62053898244702   -1.55673861707396
C        -0.16063069368954    4.34170235359794   -0.41393919813775
H        -1.17903540554039    4.53157285894637   -0.10640931631389
C         0.61861200051369    5.60074697894277    1.51320937053936
H        -0.44074613674029    5.65566372234961    1.77716992846492
C        -1.17189648325516    3.07512357727999   -2.38265291764566
C         1.01960457366298    6.94726895360817    3.41540836179957
H         0.30737025532779    6.34952093463974    4.00120206166108
H         0.49626877578687    7.86306897155334    3.09972256851230
C         2.18802223451854    7.32895355370737    4.28201971459531
C         2.00701495039385    7.87936100260257    5.54512320368536
H         1.00899874092085    8.04169330259540    5.92158011339931
C         3.11623367784922    8.20500198517294    6.30456406153852
H         3.00119207379593    8.62923547176022    7.29020806979403
C         4.37660494118833    7.96959247346818    5.77474229919931
H         5.26817600445959    8.20334392286235    6.33364303005371
C         4.47179804153339    7.42529737585881    4.50737058808037
H         5.43474534330787    7.22593706511464    4.05814737152557

