51
CSD_code = EZEQIJ | q = 0 | S = 0 | Stoichiometry = C22H20Br2F2N4Pd | MND = 4
Pd        1.55398649839572    4.13426130374432    3.93110691117688
Br        3.32511175640232    4.33012360009458    2.24867728045446
Br        3.08705954894238    3.39979094078120    5.64412310732211
N        -0.39894334221126    3.95794709578076    6.27476481934268
N        -1.00468103842658    2.66452477068638    4.66766023670511
N        -0.26405929677483    3.51127876928305    1.81529931201125
N         0.13725227184815    5.61706018275423    1.64329020505789
F         0.90016009622421    3.09896311161171   12.35247055401242
F         0.63476607382218    8.37446994413347    7.27406360979348
C        -0.06803746309133    3.57747301926366    5.02878012547311
C        -1.52219171785284    3.30262945217494    6.69955820464045
H        -1.94209263425070    3.46372945636564    7.67039938760525
C        -1.90400851688947    2.48799445456135    5.69440389924203
H        -2.72291833726345    1.80270017009602    5.62139090194377
C        -1.18058188377996    1.89930612031465    3.44501160387862
H        -2.19031720356274    2.10831285301925    3.06707178841648
H        -1.12635261306053    0.83482777239276    3.70277577554120
C        -0.17037989465412    2.16652564433833    2.32686636217544
H         0.86149749300989    2.00484281704481    2.70153450688353
H        -0.36142806880694    1.46156422947300    1.51405710200039
C         0.37106285395042    4.54072178398652    2.40368973608404
C        -0.90895136209312    3.94385082380735    0.68388517480897
H        -1.47465430875579    3.28918788677446    0.05359040033423
C        -0.65126124771802    5.26834332345822    0.57617704705136
H        -0.95358511041112    5.97523264211953   -0.16851417494037
C         0.28635982506629    4.93616112068695    7.09036112824819
H        -0.29150476909386    5.86589207149571    7.08483269917628
H         1.26672408591375    5.12126014903210    6.63125507584334
C         0.46065535388713    4.45020401287674    8.50447304359162
C        -0.00514948649638    5.20936409004977    9.56968191441472
H        -0.47925789374864    6.16242258520016    9.38590352843088
C         0.14594705869459    4.76378939878011   10.87071746788391
H        -0.20649750074913    5.34465657016101   11.70815616732937
C         0.76434796488918    3.54618029932193   11.08649371249006
C         1.24516741217161    2.77485282924721   10.04373373235719
H         1.73746771034611    1.83804556917164   10.24877139260971
C         1.09151233479750    3.23526060796221    8.74994558086465
H         1.48725775744688    2.66034475438081    7.92735426458396
C         0.77424356565524    6.90169224548598    1.85505793469532
H         0.24679583455310    7.64745622965915    1.25539611562908
H         1.81295576328203    6.82979375385880    1.50933519413482
C         0.74757843433431    7.27766163646169    3.31756384223926
C         1.86462296543834    7.06618134096073    4.13244057390311
H         2.79837985016843    6.70511081824541    3.71010653210226
C         1.83543651912985    7.44509287751177    5.46822894859575
H         2.69863857388679    7.31746442697749    6.10387263731045
C         0.67753317855736    8.00850023280142    5.97527553128675
C        -0.44664346234864    8.20775033169561    5.19453526183253
H        -1.32875539455076    8.65624058609520    5.62395341927762
C        -0.40204678525025    7.83613467794498    3.86248646588981
H        -1.26882144898184    7.99762461586727    3.23763395827837

