58
CSD_code = EZETAE | q = -1 | S = 0 | Stoichiometry = C28H17MoO10P2(1-) | MND = 6
C         5.58568664509302    2.20308674889993   11.06255521714352
C         5.54089690465948    0.87425753699443   10.66160923086551
H         6.14480222561318    0.15840066804173   11.19778400263532
C         4.73947765862713    0.49090868032994    9.60276173167538
H         4.71553250119643   -0.54439009076362    9.29462441220147
C         3.97321555763671    1.43425587739239    8.93802041598602
H         3.34605605325245    1.13886643191128    8.10891821067117
C         4.01872607171858    2.75821893950131    9.33135017802958
H         3.43678430487097    3.50063707122068    8.80368572789961
C         4.82601057149610    3.16708960961135   10.38921512382132
C         4.88532931261773    4.58340254500382   10.78324208852309
C         3.73466212353032    5.35819010866746   10.88902766937956
H         2.77378933558547    4.89516862237849   10.71468180302029
C         3.80974569502396    6.69196576040104   11.24332822723434
H         2.90505579479654    7.27497585763773   11.33809013169132
C         5.04135061985572    7.27706150660152   11.48503990111835
H         5.10338764503847    8.31759437043687   11.76686137771698
C         6.19781793711250    6.52568960343684   11.38054648885753
H         7.16760676707429    6.96272535485890   11.56288456667298
C         6.12284088890540    5.18479017713189   11.03456012107837
C        10.71670275371507    2.74218474213037   16.51658723555725
C         9.71460950387725    2.41512233096025   17.42103697308716
H         8.87260993649545    1.83442241953919   17.07612864355090
C         9.80583036883422    2.82584747335028   18.73819273693528
H         9.01594398605658    2.57706264520681   19.43213838498967
C        10.89981807849636    3.56115857946974   19.16186665579703
H        10.96706559507504    3.89213221103691   20.18862061745579
C        11.90503690219574    3.87872375036083   18.26785468498809
H        12.75479319674465    4.46374551872421   18.59138176680513
C        11.83007595999315    3.48081014522617   16.93755108075881
C        12.90114145254982    3.80208915314808   15.98171963162692
C        14.23813255290558    3.63114933733220   16.32594318173587
H        14.47898650764315    3.25108389119295   17.30928811668208
C        15.24847670543310    3.91380205460247   15.42600625829640
H        16.28139313630457    3.76531679177596   15.70882404094097
C        14.93205003105853    4.37734068799004   14.15948448285817
H        15.71698784972456    4.59079638503321   13.44746877832544
C        13.61058096822831    4.56379372836485   13.80136130142694
H        13.33944777997412    4.92461836564824   12.82083252168055
C        12.58998363428663    4.28599126620002   14.70347895394016
C         8.53834391731083    5.04258176890040   15.99926123276967
C         6.32028516984512    5.16227038942563   14.30049930998923
C         7.34994779847416    2.68420565886690   14.94504392296499
C         8.93151039564618    5.90424711575860   13.42976831884207
H         9.55580694461696    2.53175878783822   11.86941610974583
Mo        8.07865500225019    4.35304014382085   14.24742888611534
O         6.30721478293772    2.53341824128643   12.17720501196083
O         7.26988247089516    4.45122308718010   10.87886133340749
O        10.65624514491029    2.28331535256044   15.23749262703246
O        11.30450776795027    4.56431651601305   14.36555931446174
O         8.82776897007971    5.48119106759460   17.01896737748664
O         5.26640109215789    5.62093391236747   14.32993111064482
O         6.93597494212939    1.67693551341021   15.29845351506851
O         9.47184804344048    6.77821007976349   12.92557067434285
O         8.67699728195444    2.57036069837221   11.33252724332955
O        10.70326972945803    2.61654259415666   12.81558495607681
P         7.66500146243125    3.45284371631115   12.11361704476630
P        10.22269757020499    3.33531849941733   14.03485933732831

