115
CSD_code = EZEVAG | q = 0 | S = 0 | Stoichiometry = C51H59N2OPPd | MND = 4
Pd        2.58014980882355   10.84931059163943   14.06237773018871
P         1.63435271692645   12.28317878210377   12.56416726288593
O         4.53626544632799   11.91550403444944   14.06067905055884
N         3.59075111331161    8.58181825021508   15.82539467151679
N         4.04421801322140   10.60805704271340   16.46297275860918
C         3.41312775884967    9.88152941765943   15.55766915137301
C         4.57920839041707    8.37431779368520   16.88405178590962
H         5.50461236941753    7.97687720618087   16.44733084661265
H         4.22286240066409    7.66621646477729   17.63267290887111
C         4.75776291809647    9.78733400206342   17.44147723395879
H         4.30195336431126    9.89889226872233   18.43106466262261
H         5.80257752109422   10.09978210421678   17.50386955811362
C         3.07557106287301    7.49414430673400   15.07533661785888
C         2.13397077801237    6.64345734802713   15.66930070708163
C         1.68212335973293    5.54629282262697   14.95042910387914
H         0.96622056315310    4.87296093770722   15.39576024828087
C         2.13001464031966    5.30590425763192   13.66630652274451
H         1.76734025513998    4.44812188126658   13.11922842622116
C         3.03582512828315    6.16724344745838   13.08180946027928
H         3.37358656046510    5.97306984242886   12.07529677822827
C         3.52776560794653    7.26976745474953   13.77020757713875
C         1.59326634459821    6.89449225647357   17.05934927141214
H         1.94627304821569    7.87148385947338   17.40282403507801
C         2.08392538286070    5.81490459174494   18.02935251096670
H         3.16940130871145    5.73402576705318   18.01558063993940
H         1.67467799022382    4.84564179318206   17.75496391097727
H         1.76578184957904    6.04593732584844   19.04388862195397
C         0.06289566857562    6.94050327306095   17.06198386224534
H        -0.29839723770077    7.65490508743063   16.32647046936158
H        -0.29590885458717    7.24286471002534   18.04374138113826
H        -0.36227352578593    5.96750512764353   16.83128409485784
C         4.53942868646911    8.16611850616074   13.09294792840371
H         4.82747034229241    8.98509238769352   13.76443937740329
C         5.80369636405486    7.37857513584242   12.73802085504679
H         6.21061233054251    6.88716981878773   13.62002962971717
H         6.56031798542166    8.05013809992606   12.33867933098365
H         5.59460185178359    6.61655337872971   11.99112524179350
C         3.91964514067564    8.80624162414788   11.84580799364221
H         3.07896157951747    9.45588216591614   12.15020457419880
H         3.54805905428990    8.05236739822694   11.15520317401292
H         4.66813434226597    9.40475689525044   11.33070770853977
C         4.26377611100823   12.00874124409816   16.41255807275253
C         4.21801967440695   12.73294271194819   17.59107172465101
H         3.89728050189809   12.24826126346683   18.50358231583844
C         4.57613034247670   14.06631393964015   17.59915465788620
C         5.08351374464813   14.60915670393530   16.42198235550385
H         5.43152766630068   15.62889346822053   16.46873983241517
C         5.16535186122334   13.91394562206506   15.23183182969817
C         4.63088701770115   12.59048352552340   15.16289355291517
C         4.49083887725438   14.89820350419806   18.84590622718829
H         3.97593577218214   14.35832567412525   19.63768795792613
H         3.95418149700286   15.82654032338980   18.65204551615927
H         5.48753113212671   15.16087733489857   19.20279305494303
C         5.87041783519118   14.50187191892652   14.01735490265233
C         6.99936574463898   13.54069672650671   13.61064053857536
H         6.56806861372180   12.55990801005836   13.40707717561530
H         7.70260741558509   13.43850781224076   14.44216934135654
C         6.49038691532807   15.87942063321487   14.28326698002447
H         5.70756667373370   16.59214484633624   14.55418861130564
H         7.20339534826295   15.81557016762720   15.10884282842155
C         4.89256977605225   14.65061706614686   12.84787687372565
H         4.41894791137454   13.68783276065541   12.65741184356057
H         4.11207793521731   15.36285177997940   13.12518821614857
C         7.72376039228800   14.05472724742667   12.37022867480431
H         8.52079460231629   13.35093499591507   12.09896255132941
C         8.33152687710491   15.42514783397902   12.65591233756821
H         9.05404058092394   15.35046344665039   13.47255150231489
H         8.86038389893853   15.79367485276337   11.77279025321092
C         7.21313821047028   16.39155919719578   13.03686609380185
H         7.64265045652016   17.37782374184647   13.25471009065938
C         6.22579074031413   16.51426564203574   11.87793805442521
H         6.73900441006632   16.88875636141715   10.98808418979305
H         5.43670929493697   17.22580031339721   12.13454204284124
C         5.61764588597454   15.14180194869959   11.59842000918180
H         4.89915098544829   15.21581675421251   10.77159297401094
C         6.72789468974605   14.16453894168045   11.21852848603728
H         7.23421603715055   14.50926872524424   10.31248519677051
H         6.29837921243355   13.18325386420248   11.01565009309587
C         0.81539676331951    9.83528025519398   14.35379538496365
H         0.74134059812853    9.38837249460588   15.34812774163170
H         0.73499386459060    9.03247539273228   13.61231541295318
H        -0.04528210711543   10.50001507266954   14.22546911441759
C        -0.11384631455148   12.08255871490392   12.07200899863148
C        -1.14863881797487   12.86931923105602   12.55974130827528
H        -0.93766597669511   13.66662623417529   13.25916328498699
C        -2.45000332811123   12.63263694067489   12.15002177086799
H        -3.25127524570872   13.25070571963155   12.52893910479827
C        -2.72661843560857   11.60910750662377   11.26022418535791
H        -3.74323229519851   11.42864921183768   10.94307149553209
C        -1.69844438118351   10.81146413782076   10.78140334010105
H        -1.91373187257915   10.00690254872698   10.09332224709039
C        -0.39999720770568   11.04477134267747   11.18876944570378
H         0.41092219893484   10.42351906033028   10.82823637743317
C         1.58915350956435   13.84664924584740   13.50737766132246
C         1.61589712862858   13.72139776953903   14.89672924363226
H         1.63478416106433   12.72366882755931   15.35297554907219
C         1.62058735424070   14.84887541853285   15.69732771240496
H         1.66057229808191   14.74592864738435   16.77127868308658
C         1.58792356389317   16.10724032337337   15.11914521424580
H         1.59859630720746   16.98933056332855   15.74261882191804
C         1.54651139522339   16.23643050155220   13.74045423094012
H         1.52144681388965   17.21869478721147   13.29003437498341
C         1.55307801294230   15.11213142568231   12.93304068193739
H         1.54905183202631   15.21938531366457   11.85765711652997
C         2.33068987524538   12.70434767316630   10.93136283159063
C         3.60566911037611   12.23550636084400   10.63531531491531
H         4.14873752816764   11.69251253211801   11.39949399140931
C         4.16209265337586   12.46925227952091    9.39058292625418
H         5.14645764844539   12.09220833778706    9.15408534059620
C         3.45354488992916   13.18485778527569    8.44020749853594
H         3.88789678783248   13.37167867879071    7.46897989732662
C         2.18284324190838   13.65519468152856    8.73083411893865
H         1.62851612701744   14.20895007267374    7.98660637276267
C         1.61484574586768   13.40753583215206    9.96704966702804
H         0.60969250130239   13.74673871535824   10.17809890413464

