81
CSD_code = EZEWOV | q = 0 | S = 0 | Stoichiometry = C37H39ClNPPdSi | MND = 4
Pd        8.84737215167441    3.39324714253959   13.94741100991752
Si        8.11398746093301    6.17610156234735   14.20687854211018
Cl        8.16908013302997    1.14772278816200   13.51237777004746
P        10.76165069055648    2.70048251004832   13.03016097878899
N         7.02308503959698    3.81740979736240   14.99492147716488
C         9.67797002115299    5.20542794317865   14.51980819056724
H         9.93441742810707    5.11040868692111   15.58057501423415
H        10.55445354032503    5.55494030567189   13.97397130574430
C         8.08131818158674    8.03985837815089   14.53088342536974
C         8.56084214168519    8.91159078614286   13.55975099922397
H         8.92313477178542    8.50590472626669   12.62582169775649
C         8.57436331556709   10.27814643482336   13.76780824057552
H         8.95015839589882   10.93921662614589   12.99960409685943
C         8.10484918469275   10.80022860525787   14.96171836293519
H         8.11256960164029   11.86789643211846   15.12809182918416
C         7.62476615807705    9.94719162465374   15.94066209468487
H         7.25544816572828   10.34914767762245   16.87382815244606
C         7.61775628943988    8.58089063409860   15.72386176710238
H         7.24100006885028    7.92213812039980   16.49323999551581
C         7.50333240705919    5.94034346791186   12.41549835923115
C         6.28766977749266    6.48027399486463   12.00123609367672
H         5.69888573035594    7.05548564662537   12.70351750561663
C         5.82408198663478    6.29419661907056   10.71170763397866
H         4.87469671895565    6.71486167762288   10.41194829341736
C         6.57852562162352    5.56907368719605    9.80415572479455
H         6.21886908607945    5.42125670646322    8.79612714909749
C         7.80022027275050    5.04501431163082   10.19074831311059
H         8.40114728055701    4.49991456890387    9.47580556082100
C         8.25626230282479    5.22588665722698   11.48734928879792
H         9.24257599259250    4.85288108065365   11.76657424745556
C         6.93266045587838    5.23089143655511   15.39158646152738
H         7.29895747993342    5.33957329965304   16.41380277072213
H         5.90150542857517    5.58625942815542   15.38535942861164
C         5.93223913240436    3.44977832410927   14.08275911713976
H         6.15144148673546    2.45439241167777   13.68006073971356
H         5.91690041284715    4.16451671557298   13.25329043453273
C         4.55723141262600    3.39531854635341   14.75666168239918
H         4.24187511196531    4.38823969023305   15.08684393011564
H         3.82837283387752    3.04997047703669   14.02163462489601
C         4.59642586015740    2.44758075203881   15.95154914588822
H         4.79735709174746    1.43302770587767   15.60028020653119
H         3.63320024129935    2.44421998510841   16.46639286703353
C         5.70927832895170    2.87855353069958   16.90156689732897
H         5.48801237831062    3.86820119534964   17.30910454513395
H         5.78733058070990    2.18162373291108   17.73794314123880
C         7.03817039764078    2.90017739207215   16.14314614597666
H         7.85708782608072    3.19631098019720   16.81444006048493
H         7.23521214153856    1.88901991197769   15.76192692180383
C        10.56729743687619    1.55537441387296   11.62650522773195
C        11.43740121215991    0.50726283697873   11.36155623061912
H        12.26336323396603    0.30190391373318   12.02600436675406
C        11.22649164855818   -0.29828921080791   10.25503905045472
H        11.89955330243421   -1.11993402054053   10.05670236899015
C        10.15521627436703   -0.06172883344186    9.41119981877046
H         9.99394204434482   -0.69660678091180    8.55225095899501
C         9.27761425406352    0.97693908661199    9.68055364516648
H         8.42741926516596    1.14956891366417    9.03671987858081
C         9.47987758309309    1.78028791144427   10.78569570541060
H         8.77118177550812    2.56374703090018   11.03653466741748
C        11.67675438608424    1.80940151007030   14.32320151149437
C        13.01140405783174    1.43412974321970   14.19093308386930
H        13.56122496901653    1.69423519447591   13.29620724058242
C        13.64096223963567    0.75328594808581   15.21709978525539
H        14.67521109823073    0.45925187939937   15.11066537235804
C        12.95128601514359    0.45143207973776   16.38072945460064
H        13.44784018785159   -0.08344723771716   17.17697108902707
C        11.63128522267741    0.84524387598984   16.52737858247821
H        11.09891740311407    0.62094681637386   17.44010162153867
C        10.99631909918935    1.52658538017691   15.50464288243531
H         9.95444864167507    1.84313157360034   15.60858665994560
C        12.02268932321077    3.84619355842664   12.37564130339132
C        12.88030576038260    4.50271931831074   13.25475732348860
H        12.82873256029092    4.28056525245739   14.31223518931945
C        13.79197560500452    5.42643544092312   12.78019528141926
H        14.45795895590830    5.92688501530153   13.46791517246181
C        13.84883875837730    5.71424864451477   11.42553777963889
H        14.56067346197881    6.43744369345300   11.05610970540574
C        12.98931294248804    5.07550430841734   10.54766661116741
H        13.02869884710184    5.30079308542833    9.49192600974327
C        12.07715543164419    4.14804306016606   11.01896374211091
H        11.40799848407629    3.64875188217877   10.33128043823679

