65
CSD_code = EZEXOW | q = 0 | S = 0 | Stoichiometry = C17H39Cl3N4PRe | MND = 5
Re        7.16231034872697   14.76144044094714    7.59178845265734
P         3.84670039662717   15.05972331314137    6.33045394649462
Cl        8.24333983367714   16.51065692494635    6.37661321152794
C         5.52317139685968   14.80340666288182    6.63347854861965
N         6.86835070511766   15.84406133559505    8.93988379864540
Cl        6.58240380516414   12.91373498821990    9.05630128133817
N         3.58416703900591   14.94100729475958    4.69110850533517
C         6.76673044643374   16.61621355989728   10.09977089190314
Cl        8.40424186649608   13.35641600768462    6.51511581913960
N         2.93888369254882   13.87550647774547    7.09432857683318
C         7.75783211534326   16.09871108013947   11.15828444513414
H         8.77698174140844   16.19380593710635   10.79128814339000
H         7.55546303487759   15.04992938369858   11.36277713130957
H         7.65776187295325   16.66863461996858   12.07824747170505
N         3.24712184533455   16.48954011654689    6.92973832565524
C         7.10172703033278   18.07455678665383    9.72791327409118
H         8.09292465764430   18.12436897669327    9.28546888198507
H         7.07254302744200   18.69507050062919   10.61927583646744
H         6.38592700687535   18.44464966607580    8.99938081856154
C         5.32455450683233   16.51881374259908   10.63042868364131
H         5.09764237192244   15.48110010464794   10.85970988691200
H         4.63363738085185   16.86783180890895    9.86831563933063
H         5.21496534896072   17.12229180788934   11.52720107908191
C         4.59825228610356   14.30772831079399    3.85687980484420
H         4.10257647801983   13.85153518447580    2.99475852455512
H         5.07730743691874   13.51938822705496    4.44087442769477
C         5.66613219321024   15.29565261133814    3.40381820030074
H         6.39054374491136   14.79458108639509    2.76749792548604
H         6.18528265459637   15.69169142537089    4.27692829711054
H         5.23048833918243   16.12243309896687    2.84655313356331
C         2.47809623658397   15.59126002486151    4.01639593772266
H         2.82713137310531   15.96790315821316    3.05044038061752
H         2.15395596273664   16.44506407609450    4.61299423589281
C         1.29269225152499   14.65224630557646    3.80198796013675
H         0.49812854070615   15.17272183436650    3.27341705172872
H         0.90888580289458   14.30616760808563    4.75878286284802
H         1.58785363005046   13.78730098754462    3.21253146155050
C         3.07936116422138   13.85333056483062    8.55112519214532
H         3.40519838412268   14.85087775710294    8.85315685137630
H         3.86491212409216   13.16006571655728    8.85789173392607
C         1.76213465528014   13.49206550025637    9.22798888893665
H         1.86513283727403   13.61048716589893   10.30296772301005
H         1.49037443258904   12.45919082735531    9.02775430555920
H         0.95762529611378   14.13586451025293    8.88063255443463
C         2.87415342130094   12.57374548057114    6.44647370537569
H         2.79125666164469   12.75550329921582    5.37228229691956
H         1.95462117702160   12.08011069635776    6.77651314202404
C         4.07453391009839   11.67120104376122    6.71552158232243
H         4.08056312851608   10.84439338152378    6.00973237334753
H         4.05545178997515   11.26196239307614    7.72121271177585
H         4.99555404798421   12.24412349788975    6.60538649882002
C         1.83942300105475   16.74872922727859    7.18180611140258
H         1.30669705701658   15.81350860217982    6.99608598460419
H         1.45725376749297   17.50844012717435    6.48853194063318
C         1.56262353377023   17.21702491969823    8.60939269458406
H         0.48856246238543   17.28927115273021    8.76087323702993
H         1.99430385614510   18.19733213084961    8.79172916270294
H         1.97053665228815   16.51810544650053    9.33284571408329
C         4.17220512857565   17.61396766555397    6.90469549182547
H         5.17947053801905   17.19888146062408    7.04331434270947
H         3.94602856643222   18.27139358503379    7.74764671368304
C         4.13579119825426   18.41019007584899    5.60452083719126
H         4.86399932899855   19.21456811297839    5.65314577038119
H         3.15316037963517   18.84462416142015    5.43008768154307
H         4.39536309771636   17.76549602096570    4.76945190383529

