33
CSD_code = EZEXUC | q = -1 | S = 0 | Stoichiometry = C8H18Cl4N2Re(1-) | MND = 6
Re       -2.84848711446133    6.25867218067413   28.34740643161168
Cl       -4.52963032266984    8.03217641998545   28.46323131293584
N        -3.86533660382741    5.17975143090297   29.30671818988908
Cl       -1.58003737924611    7.53293678140273   26.92425125433660
C        -4.67170056864218    4.24298473041415   29.93611973187414
Cl       -3.83033005809743    5.47553729377736   26.45354830972871
C        -5.66088395432318    5.00593410868105   30.84067153827188
H        -5.10680748667406    5.60808142366321   31.55541315110614
H        -6.30239030346144    4.30269088540994   31.36691289720732
H        -6.26681190837832    5.67143562472863   30.23208677818392
Cl       -1.15747497991631    4.45835664427907   28.20377175468181
C        -3.76016594526391    3.34025713518243   30.79287217414582
H        -3.24637383942042    3.94499265641242   31.53484333595464
H        -3.01259084326762    2.87886913353922   30.15341489139021
H        -4.35112428148651    2.57129021538186   31.28515756831860
C        -5.43725482143435    3.39908600706721   28.90001075977551
H        -4.72690632199998    2.88265417268247   28.25986633355920
H        -6.04389282373949    4.05131178229841   28.27739631432958
H        -6.07656715116327    2.67157906320633   29.39607660615137
C        -1.08307789464738    7.74632557610516   30.45803359026776
C        -1.28288151023058    7.45162936412034   31.95724384891734
H        -2.30358257050683    7.69426930646275   32.24076349743572
H        -0.59138736763057    8.04046198718118   32.55575051675623
H        -1.11283577445568    6.39454975661450   32.14339276189641
C        -1.35276002436318    9.23597381145607   30.16212928545398
H        -1.23417590128858    9.41409157723153   29.09699863789491
H        -0.65734873537645    9.86003387223417   30.71901426778678
H        -2.37468697203944    9.48284993036453   30.43793595093446
C         0.35295318281600    7.38262317825132   30.02695010875318
H         0.46631452696933    7.57866901112356   28.96443940253680
H         0.52707256181625    6.32361629418607   30.19843326596703
H         1.07234185450628    7.97347402598340   30.58952341509926
N        -1.96127866807916    6.98813461898756   29.69602211685424

