74
CSD_code = EZEXEM | q = 1 | S = 0 | Stoichiometry = C31H38N3PdSi(1+) | MND = 4
Pd        8.73941038043437    9.64745316596172    4.68470690613318
Si       10.43492134654977    8.93152223775002    2.42627486263192
N        10.53570955164311    8.67519639302835    5.21749659814951
N         7.48665526147361    8.96394213499672    6.43994666097662
N         7.12819721165100   10.69566404317340    4.19334603655177
C         9.69851741639963   10.53648742226473    3.08486499300227
H         9.00656502969790   11.00768160868646    2.38247089293706
H        10.40720622692434   11.28897069110462    3.43866839713773
C         8.95893422710596    7.85964406987233    1.86371077845834
C         8.07932365870353    7.30802907993695    2.79502722473369
H         8.26383008873978    7.45442116100213    3.86773801160305
C         6.99548766623653    6.54637038796001    2.39072584899873
H         6.32714636315138    6.11413200125925    3.12338333088057
C         6.76819277156672    6.32721485444052    1.04126075413290
H         5.92417208725937    5.73317695349505    0.72491293893213
C         7.63226962530983    6.86721147624439    0.10410479137723
H         7.46257024212019    6.69426645511642   -0.94785872420254
C         8.71641614057117    7.62392147099474    0.51471664412865
H         9.39265917683798    8.03589320186029   -0.21938738823540
C        11.74069555699683    9.00547427368694    1.06674234895989
C        12.00329623571932   10.18802652552285    0.38323672469222
H        11.46355803670467   11.08427704065259    0.65237802851895
C        12.94019658103554   10.23036824783357   -0.63346337308515
H        13.13148300047736   11.15744477901053   -1.15336459965115
C        13.63192061199317    9.08351354787129   -0.98508333468649
H        14.36359464456516    9.11371376813636   -1.77830508550517
C        13.38067199301658    7.89650921780481   -0.31643100263457
H        13.91608313739674    6.99915590846902   -0.58930453759080
C        12.44320339774909    7.86065740034024    0.69896973958107
H        12.24688748160963    6.93061110799318    1.21355267678742
C        11.14126927349028    8.06694001143108    4.01259850627543
H        10.87415808267355    7.00994724951973    3.98549821830118
H        12.22962806366377    8.10991418866500    4.05731244624266
C        10.29370151348515    7.67031135791629    6.26636241456120
H         9.66020262807325    6.87650792953289    5.85560283136180
H         9.75269927911189    8.15237016950137    7.08899370772160
C        11.57947378244328    7.07338835092164    6.84108954140363
H        12.15276584436264    6.57685884071425    6.05731693925974
H        11.31661106770281    6.32385957419657    7.58849453227690
C        12.41045710151012    8.18632647573075    7.46913926822257
H        13.34847942177826    7.78931676190455    7.85760163293753
H        11.86122705482393    8.62450866201929    8.30633552872123
C        12.68788215058302    9.25340966226046    6.41627702020111
H        13.35651095041862    8.84714666899083    5.65587635724083
H        13.19229822387875   10.10961308651649    6.86580741366146
C        11.38650725354102    9.74583340467434    5.77072631872123
H        10.79828057347575   10.28122631072040    6.53255205467582
H        11.63850399068025   10.44025189089949    4.96562513871425
C         6.19760188910248   10.20326912734365    3.37834010837412
H         6.40467031068970    9.23542596426786    2.93069067304273
C         5.02984429878504   10.88451717200324    3.09392211455850
H         4.30496716521535   10.44699046164440    2.42562072207213
C         4.79762755509307   12.13446445149197    3.66502906354315
C         5.78650652750707   12.63407848596456    4.51028952320940
H         5.66879775867689   13.59933908790554    4.97741857193474
C         6.92777342437291   11.89202366885883    4.74504709333988
H         7.71639879528088   12.27412303098347    5.38885678049392
C         3.56511717020207   12.91172065767439    3.35962220112884
H         3.71487714295350   13.48123974237840    2.44182656183401
H         3.33576417143116   13.61452488626178    4.15609189152682
H         2.71626767731103   12.25080753854356    3.20333845429653
C         6.50330463023648    8.06600712516185    6.40943094292192
H         6.48592690213177    7.39793516658524    5.55631211378514
C         5.55017353167272    7.96144364250907    7.40352282057806
H         4.77886180808386    7.21042103116947    7.33395371278801
C         5.59329044065213    8.82526748507735    8.49653725707482
C         6.61751623487445    9.76852568908194    8.51362203573288
H         6.70470082885889   10.46752012784037    9.33079341685321
C         7.52971049985258    9.80242858992628    7.47637849795980
H         8.34099884847938   10.52861553766262    7.47721658182030
C         4.58577712331794    8.73345189581730    9.58908272104320
H         3.58615661544775    8.90824702044082    9.19321358690473
H         4.78492962310375    9.45911389652294   10.37246833663474
H         4.59320762136224    7.73471729416434   10.02312720251648

