50
CSD_code = EZEYOY | q = 1 | S = 0 | Stoichiometry = C19H22CuN4O4(1+) | MND = 5
C         4.04222672965020    6.96726101976333    8.94269449398636
C         2.69674820657994    7.97204730730557    5.96647975929383
H         2.97983285747441    9.01769145760629    5.91475013627479
C         1.50243048295014    6.03861068933253    4.95475823436025
C         0.48618841978559    6.28288639097796    2.77208077229584
C         1.96817616403541    7.40591778630268    4.87798869864973
C         1.67834192959228    8.14956594347264    3.75233878491384
H         2.02128483241801    9.17199623584163    3.69078366634187
C         0.94231175964651    7.61856752027524    2.67355481850759
C        -0.25526427496171    5.71071500416633    1.73839152815176
H        -0.59893262296965    4.69133739333422    1.82608866988377
C        -0.53915442520550    6.45503736723971    0.61522682292418
H        -1.11157080721747    6.01589199487101   -0.18655304880431
C         0.63443956641187    8.35272420948553    1.51109730715173
H         0.98099380957457    9.37124619409956    1.43227871973350
C        -0.09349097672624    7.77658879702492    0.50192221811056
H        -0.32802474195812    8.34072569197404   -0.38666874811813
C         4.76367389028757    7.43137111037637   10.07338147497425
C         5.23186518900795    6.77425867330826   11.22306431518054
C         5.08090338848006    5.33880828520793   11.56276715208751
H         4.45971359540455    4.83766191010835   10.82778736429912
H         4.63153452711437    5.23317245738324   12.54949913955557
H         6.05762772086360    4.85547933121985   11.59485401970258
C         5.87116013701727    7.74304524517836   12.01210241448951
C         5.77781868236888    8.94760305303323   11.33334695159897
H         6.14873875549369    9.91205323316675   11.62180794560849
C         6.52139007599061    7.51044792919344   13.32965526572251
H         7.31281569711050    6.76832187152879   13.23805536419190
H         5.79665799578462    7.13430743383074   14.05023980982757
H         6.94790224713752    8.43281886030631   13.71217054033090
C         2.64706071166690    3.05878355073908    8.76958777004716
H         2.57630989394681    1.98234142913509    8.55284256435090
H         3.56023371046643    3.22498277815362    9.36232289757941
C         1.41609713976733    3.50162183621635    9.55625166540713
H         1.48596161490838    4.56786017538310    9.76916959899001
H         1.35480716686886    2.95683724191916   10.49378373060741
H         0.51559174039641    3.31951489928145    8.97523063682259
Cu        2.83485507904121    5.45025817823388    7.29367499172320
N         5.11720233322755    8.75693443408797   10.17957808722889
H         4.89150501230298    9.44888539227655    9.48433715101968
N         0.79419342402235    5.57511403841319    3.90512484216127
H         0.46631496015704    4.61590559456468    3.98251471588351
N         3.69372140232758    7.85944557500708    8.02078917330238
N         3.04723844603533    7.30469652090327    7.02031617836068
O         2.75244126080643    3.64648202320550    7.51956965467759
O         1.66776638556616    5.24451961678986    5.91620368481473
O         3.72535201672244    5.72260962113078    8.79527374625125
O         4.65438685536574    4.95596248480754    5.81163567832497
H         5.48424133145277    4.92389072617517    6.30026095385370
H         4.39138070381072    4.03769348665915    5.67228768736560

