49
CSD_code = EZEZIS | q = 0 | S = 0 | Stoichiometry = C12H27B9Ni | MND = 9
Ni        1.53209925613885    1.31488769482243    9.41104537164498
C         0.11344456867302    2.65766502005666   10.70162050040057
H        -0.11256704452234    2.10545498368230   11.60997516720432
B         1.58105068682472    3.23955248067240   10.40323457493324
H         2.49348830905110    3.02937169523379   11.12468577024553
B         0.21387400855301    4.35144730219107   10.73725019725121
H         0.17162289768292    4.89338159820628   11.78016950966122
B        -1.15466103100872    3.50517631810591   10.03002426801173
H        -2.20731529953886    3.42213771791478   10.55045587144976
B        -0.37316699981044    2.04943896195090    9.22870978310185
H        -0.93075778293130    1.00384182793075    9.16690800881546
C         0.43903839553244    2.65100216691460    7.89013248595782
H         0.40777236332605    2.09275964378749    6.95752055791864
B         1.39023133051438    4.67791728122171    9.41271964734200
H         2.15623622855187    5.56980039177039    9.50290569146070
B        -0.42612658012735    4.92048253915718    9.21352788443353
H        -0.96655980830614    5.96472137812985    9.15153414388570
B        -0.95203918715030    3.49075508356523    8.26365313270202
H        -1.86267903162174    3.39689416803147    7.52314933897437
B         1.79940448141263    3.25785765885678    8.47746758099119
H         2.84636540080444    3.06563998803968    7.96556137577255
B         0.52683887819245    4.35244253491241    7.86589631268873
H         0.70189591910449    4.89167070824364    6.83542139126465
C         3.40767806524533    0.24289144848990    9.08435671750742
C         2.78725312887932   -0.08843704108212   10.26969794447898
C         1.59783033817542   -0.90680951769394    9.96732216301254
C         1.51325070112238   -1.09202461145724    8.62346425185933
C         2.72838277318759   -0.49827864201452    7.94595538002333
H         2.45761274410622    0.16455767329559    7.11372265565671
C         4.76477338160071    0.85319520277353    8.91523341540419
H         5.54020820943078    0.09631444121175    9.05230102243472
H         4.92942710587312    1.64445071948578    9.64257288716393
H         4.87393463760905    1.27574497127394    7.91913466831019
C         3.32208130742190    0.08489784951146   11.65863749348058
H         3.72990547985780   -0.86589034985712   12.00669019546403
H         2.54120980083563    0.38899784974603   12.35283854018595
H         4.11593066106082    0.82628808678483   11.67883371894848
C         0.72271521009228   -1.49190895341124   11.02974283433482
H         1.26478913053013   -2.27729917441488   11.55816551896224
H        -0.17648605824070   -1.92548160985173   10.60000443935255
H         0.43317083252979   -0.73678919846854   11.75834162689410
C         0.51006038375535   -1.89123892292860    7.86051572260618
H         0.82106614525451   -2.93612765291404    7.79930711953276
H         0.40860101866170   -1.50914410813707    6.84659052377534
H        -0.46573792815423   -1.85910402226442    8.34051834561586
C         3.63386647108769   -1.60449800524884    7.38716243437353
H         4.53087429470271   -1.17508537452593    6.94889034559814
H         3.11018329105588   -2.17065939699532    6.62069765545814
H         3.92512891492867   -2.28366080464092    8.18583381352682

