86
CSD_code = EZIBIY | q = 1 | S = 0 | Stoichiometry = C41H40NiP3S(1+) | MND = 4
Ni       11.19265507144854    9.21765485042138    5.15453355717308
P        10.08064957876892    7.33751800677552    5.24920826263496
P         9.84771770873017    9.65444473923050    3.55939330387539
P        12.44165569559080   10.83485122546973    4.33516831102757
C        11.17376803798141    6.18511592775361    4.37628716555799
C        12.37605494056120    6.69026139993820    3.89344460326615
H        12.63209451110378    7.73563547520313    4.10127167289989
C        13.23996512335754    5.87768838386058    3.18378993252008
H        14.17224185582074    6.27474462205992    2.81021236340006
C        12.90135188729080    4.55225628183423    2.96182469187343
H        13.57290111546623    3.91005771834646    2.41296909809322
C        11.70555795627670    4.04274937972195    3.44760919056512
H        11.45280765134733    3.00751864409814    3.27593114029641
C        10.83567576633451    4.85386694339639    4.15317628352336
H         9.90735929718340    4.45793589706089    4.54138838354286
C         9.51613715386147    6.49787425410956    6.74141827388628
C        10.34570512540413    5.56860032523350    7.36396414442071
H        11.29892458118698    5.31895275814771    6.92027743920523
C         9.94492377290899    4.97455018878224    8.54586151868198
H        10.58439681330075    4.24903817140497    9.02501217108893
C         8.73109955849416    5.31697825426392    9.12002339996467
H         8.42233568401374    4.85298169520500   10.04412039466324
C         7.91924071122497    6.26607829766831    8.51881362203940
H         6.98188781716639    6.54392640197878    8.97669366885119
C         8.31258632367857    6.86651889820332    7.33776187949324
H         7.68987258843493    7.62563009767122    6.88446949073379
C         8.60318662604967    7.36745369284787    4.10727506078570
H         8.32136633751444    6.34454174132462    3.84633127901325
H         7.76905008764669    7.82992426300932    4.64271190343014
C         8.95144907822295    8.20221445354935    2.87333295372696
H         8.06333149187306    8.49589269288093    2.30804917217532
H         9.63215696112530    7.65793700663224    2.21100976799874
C         8.56275159278925   10.61228424796584    4.40414057731499
C         8.72476309422747   10.80842352186076    5.77454043233467
H         9.60582222430146   10.38310051826559    6.28019524619502
C         7.78126625537270   11.52567478621803    6.48639607238152
H         7.90311604567897   11.67692848960774    7.54819685200628
C         6.67674594528907   12.04631471071995    5.82952630053694
H         5.93743163196487   12.60548401162109    6.38193812427509
C         6.51424378727960   11.85274963825058    4.46563217258145
H         5.65111760582297   12.26105481407712    3.96237744482932
C         7.45458820603019   11.13665144709043    3.74692528653866
H         7.32918235687558   10.98395295483299    2.68347324092625
C        10.52175819168202   10.79603884780793    2.28760330335864
H        11.11939903571146   10.21123198428812    1.58215916289545
H         9.73355424924196   11.31996278871968    1.74087640546208
C        11.39059164656079   11.75933713658936    3.10024488759567
H        10.74472375794960   12.42242392016380    3.68694034875650
H        12.02301008725364   12.39168134704816    2.47254676336488
C        13.17203108389617   12.22579960604325    5.24183909503007
C        12.30458632169495   13.00387059606622    6.00566532495177
H        11.25403639694248   12.74264875765525    6.05353243378707
C        12.78491435676387   14.09383140777651    6.70429674564576
H        12.11057547851767   14.70045029571324    7.28989672100594
C        14.13640011438891   14.39956385670859    6.66078402491842
H        14.51359139594233   15.24891201706979    7.20982447585471
C        15.00379126904781   13.61334895144380    5.92109958498032
H        16.05708969455430   13.84726994698718    5.89429409548869
C        14.52786907620415   12.52541163058180    5.21120934714431
H        15.20803645466316   11.91493406169887    4.63589235126022
C        13.81580900164589   10.16869519618186    3.34274487596896
C        14.00988376683156   10.40681265404683    1.98688269690956
H        13.34005063477558   11.04176830628975    1.42790569789976
C        15.08792855647998    9.83295256114863    1.33351253170980
H        15.23422459494216   10.02456140341408    0.28112811411905
C        15.97619839323863    9.02165094383637    2.01919357010890
H        16.81302635724488    8.57942794727418    1.50066243428558
C        15.78919269220238    8.78206044306507    3.37184707180226
H        16.48054665346379    8.15499380566867    3.91441093774308
C        14.71299353535174    9.34814694875457    4.02753314732574
H        14.56022398367078    9.17220077124715    5.08438984394428
S        11.92459739565668    8.73620821357808    7.14939278889888
C        13.38524670513720    9.63247119208637    7.56788803461747
C        13.28573030294653   10.89801473312973    8.13384857686136
H        12.31066851904963   11.34043799820147    8.27215755608680
C        14.42525625355220   11.56690526564126    8.53241346239031
H        14.33713536565952   12.54582545153122    8.98029760025426
C        15.68298937896718   10.99794518663260    8.36855099231799
C        15.76880003544568    9.71805075267246    7.82953370684437
H        16.73672299641435    9.24976157674187    7.72299645530841
C        14.63423271457224    9.03198378397691    7.44464922403510
H        14.70286849959637    8.02244860527375    7.06367621384247
C        16.91650499803199   11.72637242003661    8.79939575814735
H        16.74720192564291   12.79977783887259    8.81911170692104
H        17.74901288979408   11.50815354389726    8.13460972154629
H        17.20105958375294   11.41114347582900    9.80328635830840

