83
CSD_code = EZIBAQ | q = 0 | S = 0 | Stoichiometry = C40H38NiP2S2 | MND = 4
Ni        6.23067390642414    4.19056124840746    6.76495580382658
S         5.23372220715290    2.37092925647524    5.75044381078623
S         4.47621497253264    5.53066012850436    6.94864661444658
P         7.70517919737740    2.63734188789291    6.96857730939696
P         7.50598138603872    5.47201377404109    7.93692539361212
C         8.11854642910722    3.62428048924960    0.60013379784155
H         8.89631209988799    2.87888003321272    0.43676187644981
H         8.58015741368430    4.60810992205828    0.63849873393383
H         7.44477244219155    3.59333541457208   -0.25594297604980
C         7.36922233173160    3.33172808777544    1.86570220731829
C         6.77916499491634    2.08514425218075    2.05834168094741
H         6.86442110611887    1.33540460779877    1.28401379233374
C         6.09934126401767    1.78583764579142    3.21900974853183
H         5.65179270732073    0.81431678720736    3.36356736575844
C         5.99588856862747    2.73970315055500    4.22740967764054
C         6.55405942501038    4.00095649454579    4.02925669609442
H         6.39909478259017    4.78920248027396    4.79414638936212
C         7.23546670510881    4.28850077547673    2.86193941711925
H         7.66537884122269    5.27169164651324    2.72346484529411
C         1.31187146179420    4.01418067759076    2.01970105113660
H         1.82743163412562    3.19431495912228    1.51713798342010
H         1.23728169936948    4.84452689038491    1.32071331413739
H         0.30993442022738    3.67487560713247    2.27430258497079
C         2.06942866381763    4.41466618600926    3.24977978664499
C         1.84465750003724    3.77101819385238    4.46130868654223
H         1.09905336374717    2.99016830810027    4.51932984178795
C         2.56653871851470    4.10508439261663    5.58861658460133
H         2.40032581873199    3.59059853431199    6.52327415118716
C         3.53797219116560    5.09828374775653    5.52191770087087
C         3.75099102615015    5.76734158437213    4.32151476288841
H         4.49343238926128    6.55185818230359    4.27480769565784
C         3.02733931454912    5.42023508212416    3.19873610218575
H         3.21130176764827    5.93582564592361    2.26595856628005
C         8.37999863839450    1.45661484460834    5.77849684324128
C         9.36967848781691    1.87398450138426    4.89354019729487
H         9.79333442125613    2.86481845463027    4.98412646501574
C         9.80195379872028    1.03012525372993    3.88813544712250
H        10.56838796153824    1.35989085108157    3.20195665534974
C         9.24383660960456   -0.23008342820109    3.75299825403543
H         9.57829649424831   -0.88649126032893    2.96321458119555
C         8.24601020590385   -0.64280886132526    4.62097338039770
H         7.80072276823046   -1.62037188542351    4.50678617278910
C         7.80465212741679    0.19906333215176    5.62423578558346
H         7.00115429393655   -0.10318668805809    6.28097222022116
C         7.05789122882938    1.68489557686729    8.37261183525428
C         7.68020939078164    0.54557882604768    8.87018924970722
H         8.55845393585989    0.15023351708616    8.37694388949729
C         7.16504782637619   -0.08060784087110    9.99102980791644
H         7.64051321449504   -0.97225302783058   10.37388885623254
C         6.04423768569461    0.43282342734708   10.62471867403617
H         5.64806111517064   -0.06230081936885   11.49918371870567
C         5.43081813392689    1.57740822985993   10.13997943823835
H         4.55992354050642    1.97907396593582   10.63636750518140
C         5.93595255057570    2.20190725440763    9.01546082061927
H         5.44852266305705    3.10175463614530    8.61211393690523
C         9.22473535264503    3.33058395513021    7.82387742389693
H         9.78382717477047    2.53249006092131    8.32109570477886
H         9.87651342236107    3.80318536080366    7.08431163155081
C         8.71809805337630    4.36868846986007    8.81733000802026
H         9.52949029015451    4.96843693281780    9.24045305776645
H         8.18281404076204    3.86356680378922    9.62772102173355
C         8.68962684598953    6.49387518940954    6.99978859481982
C         9.28697044624210    7.62416730260773    7.54725847131252
H         9.00943095484621    7.95393883226758    8.53846477203040
C        10.22913119788413    8.32733867979435    6.81862957343659
H        10.68750331020270    9.20774798626822    7.24498143855388
C        10.58786651978513    7.90715078047791    5.54763156886928
H        11.32325376639054    8.46163084630782    4.98356344170502
C        10.00089106192338    6.77799593794329    5.00119850507901
H        10.27922340229710    6.44678201557147    4.01102868698487
C         9.05389620426815    6.07600248316201    5.72422355650023
H         8.58380626799955    5.19584089955920    5.30056386938712
C         6.88588884735356    6.61860466029910    9.19278992356648
C         6.95666278016400    6.38042607531323   10.56006464280275
H         7.44197744202613    5.49286843465687   10.93888243604207
C         6.40196442681177    7.28689208795566   11.44679909112310
H         6.46492054055519    7.10217747897012   12.50955037430239
C         5.76266382838789    8.42204869644071   10.97786550992665
H         5.32774864702006    9.12265885315057   11.67534084401989
C         5.67239385624498    8.65327037499778    9.61415986601075
H         5.16305501249277    9.53139526890395    9.24619485398304
C         6.22706135336847    7.75484236640486    8.72451691387045
H         6.15127711114126    7.91594823223077    7.65813948646523

