85
CSD_code = EZIBUK | q = 1 | S = 0 | Stoichiometry = C40H37NNiO2P3S(1+) | MND = 4
Ni        4.39141759223293    2.18815587613149    4.74962929449038
P         3.50790068687221    0.20990965404561    4.96953406689103
P         2.74003926573673    2.66158166781591    3.52050615418210
P         5.19350822988582    4.14341455912863    4.22233954584134
C         4.56940574295008   -1.14985975675144    4.41374744048615
C         4.61774110330776   -1.54826431384614    3.08096024368990
H         3.94722280578216   -1.11324095523721    2.35332061760635
C         5.53289310084652   -2.50449976625720    2.68101220841155
H         5.56844539453308   -2.81447223188226    1.64781025397618
C         6.41236275806324   -3.05315636803502    3.60053601817687
H         7.13337647470107   -3.78938493910913    3.28111333767176
C         6.36913535173244   -2.65540424202574    4.92754058100273
H         7.05371606535467   -3.08330353351348    5.64343948575395
C         5.45462425424491   -1.70356702205147    5.33639425848213
H         5.42338277580099   -1.37927941293506    6.36765782454199
C         2.92161413495777   -0.32386711112302    6.59461334899067
C         3.14056821890039    0.48209898839408    7.70492377880824
H         3.68729884918893    1.41067591918866    7.58774428068739
C         2.68855375301795    0.07923980357460    8.94873807303493
H         2.86192762053589    0.70096258752541    9.81370111796082
C         2.01987041242873   -1.12642228215864    9.08168185715044
H         1.66879925423716   -1.44324445734106   10.05159140344349
C         1.80640527723031   -1.93451956504681    7.97434011523163
H         1.29263237654526   -2.87720675238076    8.08475782207857
C         2.25529463504818   -1.53925521328663    6.72871958904006
H         2.10295654188946   -2.17080480229906    5.86471300596095
C         1.96343103258631    0.11679026880756    3.91071954947130
H         1.82537272758999   -0.89657546932204    3.52741094323226
H         1.13049513654235    0.34327360696890    4.58527234779701
C         1.99794013342310    1.14991396330839    2.78017963640731
H         0.99966726996822    1.34604741815881    2.37973097408251
H         2.64440759715468    0.82449652937480    1.95881817766076
C         1.46070332775038    3.40654994087048    4.55107748719078
C         1.77306698960661    3.54863789798596    5.90040378487866
H         2.75293433292477    3.20732529760831    6.25033962630838
C         0.85666821250219    4.11012234599656    6.76801731833763
H         1.09473946324532    4.22229257040370    7.81445772247072
C        -0.37309533954997    4.52881450415962    6.28300004607961
H        -1.09352115275721    4.96824603288315    6.95528034174141
C        -0.68609532664110    4.38763866239041    4.93884797215408
H        -1.64613250849803    4.71688309691929    4.57203086615539
C         0.22753589136618    3.82646093173815    4.06490342404957
H        -0.01347938166621    3.71559326197886    3.01654075499961
C         3.18382258409902    3.92115246493781    2.25512202396979
H         3.75431067045416    3.42070237286613    1.46616594490789
H         2.29391316425916    4.37233487311580    1.80794835325553
C         4.03632631693719    4.95822398871055    2.99296197627418
H         3.38501024109952    5.60723943941692    3.58856217980320
H         4.59906794634256    5.58555738869906    2.29825453934486
C         5.38383759252177    5.40614281070449    5.50286583593658
C         5.77261048405522    6.69669412996113    5.15274589914460
H         5.97477629813059    6.93894236538453    4.11885263714262
C         5.91080475500178    7.65593707791822    6.13756183692318
H         6.21463965750009    8.65696162400711    5.87213612708570
C         5.66606773897445    7.33370126189114    7.46464356810350
H         5.77877221888675    8.08763602863290    8.22833040041320
C         5.28722441766796    6.04792299448610    7.81318649227504
H         5.10805207880843    5.79724651189164    8.84751072894449
C         5.14540716903691    5.08223735402887    6.83271652805603
H         4.87330818385291    4.06558987411311    7.09184406893132
C         6.81552100948156    4.08909076027486    3.41505981125461
C         6.95120985112227    3.90194552410078    2.04255455780861
H         6.08030560788149    3.87731398116443    1.40285955373691
C         8.20898286668529    3.74193071867146    1.49081162251479
H         8.31386933379567    3.59930777362639    0.42613723942081
C         9.33139478948088    3.74987568096733    2.30329267173203
H        10.30945598580451    3.61114883746899    1.86960941337782
C         9.19892631931835    3.93222389611106    3.67084536056586
H        10.07306082369297    3.93900824203803    4.30338321660979
C         7.94603877271974    4.09775341510771    4.22963386717494
H         7.83390628598299    4.22853958592242    5.29734145151658
S         6.13498482644314    1.67987266669379    6.04191394982748
C         7.08948469055149    1.02547930928335    4.76146079095662
C         8.36620778159050    0.52249566209723    5.03563114031324
H         8.73292784155446    0.55374053418599    6.04932164711698
C         9.13504859253374   -0.00176320260685    4.02573237241433
H        10.12149144598019   -0.39471238095137    4.21773337988683
C         8.63782047970521   -0.03063220785476    2.72365020699704
C         7.37044126055052    0.46642083798748    2.43536275500668
H         7.01482054599119    0.42982047181886    1.41715419915579
C         6.60487367690235    0.98892793442689    3.44663793624004
H         5.60173618322457    1.38015472676861    3.21137120406694
N         9.42977420386623   -0.57577735294166    1.66486832940972
O        10.53178492464774   -1.00111142437936    1.94214535047649
O         8.94624930124376   -0.57847374153816    0.54818213535022

