62
CSD_code = EZIBUL | q = 0 | S = 0 | Stoichiometry = C26H27Br4CuN2O2 | MND = 4
Cu        3.83500807325056   10.63149644043412    2.66348077836464
N         5.74613975654235   10.23907156089733    1.90202589502109
N         2.36262058367809   10.74864900191236    4.13184746760969
O         3.13537929863070    9.05064755002637    1.89734263782827
O         4.12230739850602   12.50735483848325    2.70977745365690
Br        1.22913867859423    6.87809888043557    1.60928146879481
Br        5.74430150260000    4.27043009650222   -0.63150690977785
Br        5.34757737583382   15.03715193748311    2.06985356526012
Br        1.14392478356529   17.00664270306233    5.34458113225080
C         5.15938521951371    8.05393516900733    1.04238981661533
C         3.77338727192052    8.07557031229504    1.38757037384116
C         3.05461274796499    6.87438147237583    1.10964114681426
C         3.60277819372659    5.76555889095180    0.52899174874810
H         3.00726117968248    4.88484798735028    0.34239248054480
C         4.95479253846229    5.80000403205311    0.18516375399593
C         5.71310801231145    6.91440140338226    0.43573650377642
H         6.76031806504941    6.91974902846914    0.17030437855677
C         6.03635944533223    9.15982618752194    1.28020375145636
H         7.04046411783344    9.01633892808339    0.87752712721854
C         6.69753869283446   11.31125512811847    2.09556447303185
H         6.14426255845102   12.22740905657816    1.86315351441188
C         7.08661893103265   11.36367267269271    3.57717087988810
H         7.68285895309370   10.48221930811832    3.82582956771670
H         6.18060609361783   11.34628023672668    4.18533889919318
C         7.89077904603646   12.63652810264515    3.86811848072808
H         7.19335148527666   13.48605510280102    3.80430627049459
H         8.28166003772506   12.61861423104125    4.88726423742717
C         8.96653853473175   12.86203626579464    2.89196316900631
H         9.87332923892944   13.35162876873036    3.20298757936170
C         8.73850289273889   12.58831513864731    1.46457667121109
H         9.68127424260931   12.57107549945001    0.91485936862980
H         8.13219303148140   13.40811178945867    1.04810501729109
C         7.96463651740820   11.27955468703495    1.24416407973292
H         7.71254231287525   11.18208770050236    0.18699435209079
H         8.60456232128113   10.44269963591995    1.53396936165913
C         2.32971584138812   13.16915473067735    4.18761932732751
C         3.44293573563357   13.39348238495393    3.32484499586401
C         3.82275411381378   14.75520269528748    3.15763461921258
C         3.17705176955662   15.81638344713218    3.72817770954855
H         3.51127943195886   16.82900175829415    3.56056144514567
C         2.07331312094414   15.55122166389400    4.53743617181091
C         1.66460328862350   14.26048538268890    4.76594748562552
H         0.81686838304816   14.07503176364805    5.40928092069338
C         1.85403558906470   11.85562039882852    4.51618798043368
H         0.98003129113633   11.85720184574849    5.16871079854687
C         1.83731853094225    9.46095362150305    4.52895417594958
H         1.62700248467523    8.93623072226795    3.59017783991224
C         0.56708357948626    9.45745417677267    5.37713673773886
H        -0.23136797860204    9.99533676075287    4.86136461910017
H         0.75446151250818    9.93888003631452    6.34095399702515
C         0.13002685998172    8.01300161711593    5.61340727259739
H        -0.08396248145697    7.54038479219172    4.65279929225252
H        -0.78624698921588    8.00222250185123    6.20658363528574
C         1.22332161982135    7.22912143923422    6.33148831874122
H         1.40466862169090    7.67040327111939    7.31465644650379
H         0.90076376925637    6.19773781572113    6.48122161854304
C         2.51236403967217    7.25478218348051    5.51684994779948
H         2.34449540500012    6.74993677568714    4.56416781121962
H         3.30339603479829    6.72095511241254    6.04737257866204
C         2.94941086338800    8.69186749198758    5.25477773150183
H         3.85353527944401    8.71148846034508    4.63975244931152
H         3.17222115033051    9.19315740509042    6.20056358118526

