77
CSD_code = EZIBEU | q = 0 | S = 0 | Stoichiometry = C38H32Cl2NiP2S2 | MND = 4
Ni       14.16744149987621    3.36159566216686    0.07604276622568
Cl       20.22080062318859    4.03004077060343    2.51927778970753
Cl       20.02726494817071    6.50854579213726   -0.98519268841723
P        12.80929500830008    4.57126679966201    1.19978225735193
P        13.54620105573132    4.36422669397329   -1.73427456086276
S        14.32834892097129    2.04448342351024    1.92435123683889
S        15.54532442818328    2.17946570782766   -1.29010045329294
C        11.22462396271570    3.70155519381685    1.04701892757399
C        11.23278401188195    2.49887968725849    0.34851356369343
H        12.19301911037670    2.09330052390402    0.00841689950139
C        10.05087410458783    1.81822840107838    0.12483296929795
H        10.05662080380097    0.88611312850467   -0.41977921780410
C         8.86004321760840    2.33711114204265    0.60742893583503
H         7.93361628164493    1.80888627732510    0.43700003656454
C         8.85133446902944    3.52820523752975    1.31779437305019
H         7.92037837056307    3.92102380802777    1.69998375107124
C        10.03037336382584    4.21615466044473    1.53880454038153
H        10.02920443911227    5.14279850781844    2.09715368802182
C        12.83030494103693    5.14831113769818    2.91429022741496
C        13.28345842540428    6.41354209385195    3.27306925319812
H        13.59589142628181    7.11800878334733    2.51564970891363
C        13.33996284630515    6.77237375325412    4.60834907898498
H        13.68799777289557    7.75698466717402    4.88418675750897
C        12.96063760509946    5.87059850506485    5.58892862085671
H        13.01203003870883    6.15395683359345    6.62960610311207
C        12.52657376248042    4.60227305787233    5.23534243355849
H        12.24276010194363    3.89452541256200    5.99969112437132
C        12.46572876926874    4.23755329438708    3.90421299569191
H        12.15347563241041    3.24335593797469    3.61609421669183
C        12.47191738805074    6.09562593763131    0.18834438702879
H        11.59333176943493    6.62289273842284    0.57145617484060
H        13.34084031806304    6.75403943645103    0.28390914571838
C        12.28631197334465    5.67293367866496   -1.26466539335464
H        12.34796817814951    6.52891245058826   -1.94111821195580
H        11.30464198151764    5.20269523334116   -1.38587272355358
C        14.76697048782220    5.25496007785693   -2.73646561266500
C        15.21001757246655    6.52224225847739   -2.37214046774198
H        14.76180996726344    7.03229690708199   -1.53075423219136
C        16.23387470948732    7.12804039512756   -3.07562210727767
H        16.57666748202347    8.11080681260545   -2.78749731501970
C        16.83223885492725    6.46839583784068   -4.13613678163758
H        17.64141238563768    6.93818419178891   -4.67448829713831
C        16.39990262997987    5.20305730599412   -4.49753123106788
H        16.87029717482540    4.68493831100217   -5.31982948381246
C        15.37444639389576    4.59363054833018   -3.79996757344893
H        15.04742476653452    3.59741082078700   -4.06357130355097
C        12.62135425300245    3.43456219723054   -2.99174546292302
C        12.50770480474428    2.05367455562031   -2.89935793272017
H        13.01017518062509    1.53076153262138   -2.09569287841872
C        11.78177590386022    1.35404734629124   -3.84715230481442
H        11.69716292707181    0.28004998102634   -3.77433688096434
C        11.17078261362735    2.03027834348951   -4.88929277155490
H        10.60522234443844    1.48517813708807   -5.63050619031565
C        11.29076916287879    3.40815975855775   -4.98930554821375
H        10.82185509601926    3.93349012100708   -5.80856240476467
C        12.01316136852138    4.11209868434895   -4.04497992780210
H        12.11709471973045    5.18536204571850   -4.12673766024742
C        15.99110144068764    2.56212617486277    2.16954134130063
C        17.03925550245938    1.80336065768069    1.65281729093539
H        16.81837462718245    0.88388145405537    1.13249686857025
C        18.34108658578144    2.24677535675685    1.76994286891985
H        19.15297743379087    1.67688681937024    1.34575681358065
C        18.59656371493246    3.44268938052977    2.42200464517980
C        17.56980039869275    4.17902729953570    2.99249935072833
H        17.78841552454406    5.09615464436579    3.51761853500610
C        16.26844699133725    3.73266958825804    2.87327200624964
H        15.45499468509030    4.30049519795675    3.30412365644024
C        16.80214491020365    3.37272809422583   -1.17705020060055
C        17.96453967293734    3.23779348421094   -1.93575172957496
H        18.07570784041317    2.37603550285016   -2.57566564478948
C        18.95649323610728    4.19229818082201   -1.87143029531933
H        19.85443477187295    4.08729105354896   -2.46041916958765
C        18.79429860269272    5.29609740691330   -1.04740338959426
C        17.65591654244692    5.44189831406151   -0.27349532399079
H        17.54814948708285    6.29631053580527    0.37683668907961
C        16.66722856832499    4.48276809275084   -0.33967495378236
H        15.77436711404801    4.60002222205257    0.30122629576396

