51
CSD_code = EZICAS | q = 0 | S = 0 | Stoichiometry = C24H16N4O6Zn | MND = 6
Zn        3.92530767291491    3.05934407089741   18.25856853970112
C         2.67291896444960    4.54232637242214   20.63732499731176
H         2.58988796379771    3.54619035746064   21.04777040322486
C         1.99478962397738    5.63023897022973   21.19805798462277
H         1.37784445978457    5.48686936639107   22.07093258818761
C         2.12463777216330    6.86760036535352   20.61481967225213
H         1.61246858770294    7.73161826391877   21.01328047643264
C         2.93398651489685    7.00752102381744   19.47441787373658
C         3.57868278746568    5.84758897297338   18.99057640094854
C         3.11699129178879    8.24636764277732   18.79554777908333
H         2.61281587065196    9.11982727738312   19.18200770533614
C         3.89632352947466    8.32454846101940   17.69061524128133
H         4.02988854680580    9.26282832924782   17.17257672336206
C         4.56016491036374    7.17405705549890   17.17483516355719
C         4.40812189864381    5.92820082908467   17.82412360981572
C         5.37119443288166    7.21193685166779   16.02862091663282
H         5.50583602795146    8.14383605932674   15.49884219711649
C         5.97893167836073    6.05579819123676   15.60540079695618
H         6.61146479260794    6.04065520856718   14.73221906558449
C         5.76467634499734    4.87649896290525   16.32670225581168
H         6.24388454257094    3.96132632160208   16.01081893587115
C         4.56442782156798    1.63458927491679   15.59991949559823
H         3.55090821462667    1.96229381753093   15.41092120259700
C         5.38046811583371    1.11498276583390   14.59830117532679
H         5.01233586750172    0.99056953275369   13.59321407759316
C         6.67111359923066    0.78449581279495   14.95144192841505
C         7.71535879958611    0.29115479707180   13.80176732510994
C         7.12102825503918    0.93653014394082   16.24425282241545
H         8.13936814372514    0.71083241812954   16.51613761416002
C         6.21438211822207    1.43851695100041   17.18376376210666
C         6.56787799158621    1.66052668564018   18.59640800645575
C         7.54983142842033    0.90391072837568   19.24440448288227
H         8.06839892214381    0.10817188764323   18.73490798117527
C         7.79575317373354    1.19203543173673   20.56704584733083
C         8.96275517263976    0.37387205874915   21.35959281047127
C         7.09019223731844    2.17598823398361   21.22375836768227
H         7.27554637337148    2.41834401076801   22.25736063245063
C         6.11578016380133    2.85105580855166   20.49405342512412
H         5.51273015981221    3.62089119299710   20.95075589290681
N         3.43770697660663    4.65330673834057   19.57642524795454
N         5.00555261301428    4.80953405170481   17.39358713213596
N         5.88032439739078    2.60081499855913   19.22687032781706
N         4.98427877254238    1.78309341891605   16.83571873597656
O         7.61324306891113   -0.89333388447942   13.60299090413566
O         8.34377302856017    1.25335049212783   13.42342263398293
O         8.56670319489320   -0.72050119447660   21.67542506659324
O         9.94705416855541    1.07094118078590   21.43636511670417
O         3.20892900775750    1.74085621355414   19.35331613444085
H         2.85892218485170    0.96385262584318   18.92159110308151
O         2.53168404041811    3.34066152449401   17.05234052408082
H         1.66665377410004    3.07388332842587   17.35978089645937

