67
CSD_code = EZICUL | q = 0 | S = 0 | Stoichiometry = C32H26Cl2P2PdS4 | MND = 4
Pd       14.87750823087681    7.98062899098938    3.73929612736763
Cl       15.13456231984515    9.60595354707241    5.30623684868693
Cl       14.58877694556717    9.29445675684856    1.90478429231758
P        14.41633146406018    6.32082271795264    2.34478340690231
P        15.37444109452417    6.51013828792668    5.32663762989224
S        14.51492688023127    3.19572252167420    2.59534936887493
S        15.29008781272561    3.38149651750384    5.47328215182688
S        14.61614364055780   -0.04856911186605    2.79774306171471
S        15.37297669565423    0.14517757949594    5.65121203981824
C        14.72116813533029    4.78999588755436    3.28597856370587
C        15.06028160734688    4.87426304067774    4.58954527259381
C        14.92851620049167    2.33682892723661    4.08869378677927
C        14.96722112991179    0.99578799375858    4.16728536556637
C        14.88160660659690   -1.55659955674138    3.67059515874444
C        15.22392294473716   -1.46896570861315    4.95988235303207
C        14.71031204335586   -2.83303458343044    2.91661637202719
H        14.39189335373975   -2.62636089873813    1.89890281896346
H        13.96358023442044   -3.46285269083967    3.39896358761266
H        15.64920905268811   -3.38541326178441    2.88520106272265
C        15.48623300880438   -2.63296295773773    5.85622959499725
H        15.76567198972877   -2.28615489800595    6.84693718956166
H        16.29304113257102   -3.24672278873391    5.45699698129430
H        14.59667222358084   -3.25673792164556    5.94041076426433
C        15.10185603884016    5.99621313216037    0.71135697429486
C        16.30336712620933    5.30308184372077    0.58953230272856
H        16.79204699799351    4.91214525975796    1.47326808554929
C        16.86458294138489    5.12367312309232   -0.66059551451216
H        17.79141915545005    4.57836316685278   -0.76083890134095
C        16.24336734691675    5.65125273661107   -1.78180092892954
H        16.68642376181327    5.51116299837164   -2.75663647183154
C        15.06536239968590    6.37072820834618   -1.65523151732762
H        14.59559499454457    6.79699835917906   -2.52899631388439
C        14.49292514782207    6.55195511426600   -0.41016989640475
H        13.58731937018254    7.13048553151257   -0.29280527556635
C        12.61052049679295    6.25855591747621    2.18354680531505
C        11.86696397743571    7.13660685023652    2.97119864990624
H        12.38026731722439    7.87143807274333    3.61245656594433
C        10.48499591633427    7.09581086185576    2.92175798507188
H         9.90364672298418    7.77933410792966    3.52227684718036
C         9.84864506671978    6.18004697581900    2.09817146829526
H         8.76981652329740    6.15185746814431    2.05876464136155
C        10.58911367872731    5.30076626308144    1.32294139753778
H        10.08799715095136    4.58800278833880    0.68479842261368
C        11.97087382932980    5.33367581304625    1.36308501895266
H        12.55704918202337    4.65158660573813    0.76186747664923
C        17.18673853279955    6.47368588484365    5.43649129492702
C        17.85699145625814    5.65666566902180    6.34265238558580
H        17.29369118456101    5.05310691278037    7.04167936525586
C        19.23945789606330    5.62952797402029    6.34200090042715
H        19.76372869390556    5.00009153496787    7.04576783071346
C        19.95107300056146    6.40775469566770    5.44179068145873
H        21.03069781666439    6.38411816922635    5.44850135049527
C        19.28454566514304    7.21775648582888    4.53553772878295
H        19.84298901293705    7.82437058607112    3.83843073219271
C        17.90147762607078    7.25214116718086    4.52667752095215
H        17.36586779841560    7.90632995577860    3.81933182056351
C        14.75816814370848    6.39495916509470    7.01547637310022
C        13.59319804437756    5.68603733136368    7.29562685271271
H        13.08494873606081    5.14834065710557    6.50554350082443
C        13.09269306767662    5.67741802486004    8.58404545563298
H        12.19524356900662    5.11994234872339    8.80821551096612
C        13.73559594749356    6.39081053212877    9.58343399794788
H        13.33897582253750    6.38395687838216   10.58786398427448
C        14.87539012697842    7.12548029098571    9.29563666553661
H        15.36153788649673    7.69626306933099   10.07260664359628
C        15.38766189838425    7.13619631363162    8.01211585119426
H        16.26268818389990    7.72210676415248    7.76686193198398

