67
CSD_code = EZIJAY | q = 0 | S = 0 | Stoichiometry = C26H34Cl2N4Zr | MND = 12
Zr        0.10497731745665    0.58304366753397   18.02588518314636
Cl        0.46909119512304    0.19150762959443   15.73455952439035
C         1.47508833700301    1.06846694590926   20.07645001929039
H         1.08893108762137    1.19931468647672   21.07678024300679
C         1.72613118598959    2.10097949976883   19.15551386185084
H         1.54088920455046    3.15625579706969   19.32209224144554
C         2.31720822868516    1.55990730669447   17.99356552353409
H         2.64617699942729    2.15896516955074   17.15530291044987
C         2.51615367717116    0.14985011379943   18.20811113815752
C         3.02166715222863   -0.92126126075863   17.40029638418563
N         3.54226009510756   -0.76810428727258   16.13036263033046
C         3.20337800686795   -1.71465980851337   15.09216399371431
H         2.61517954450186   -2.53365927703176   15.49607494840823
H         4.11091823301905   -2.11596250152954   14.63079596696966
H         2.60261345125457   -1.22003961179821   14.32282959908318
C         3.94803330657510    0.51523424928881   15.61784664448407
H         4.67157923225524    0.34235820611894   14.81845288871199
H         4.44124825635480    1.08520107989696   16.40252775577074
H         3.10794676061408    1.08527522079255   15.20083526357886
C         3.02884094474485   -2.18472327134026   17.98032577636744
H         3.43472349067093   -3.01220507215276   17.41935295623179
C         2.61189603991320   -2.43705039682418   19.29106780019300
H         2.71299871479765   -3.44447968075800   19.66416146456028
C         2.11702275777700   -1.43898409956857   20.10098087445344
N         1.64711009731362   -1.63167204183932   21.42380403923357
C         1.31809062853863   -2.98812159435923   21.80133391469948
H         2.20184904129799   -3.62042032852725   21.96844612203379
H         0.69697604899850   -3.44177994987676   21.03119396274406
H         0.74907913962152   -2.95352935641243   22.73202101847957
C         2.43703827541425   -0.97262118634457   22.44841504626895
H         2.77976347236116   -0.00664378818024   22.08932532112883
H         3.31750475707984   -1.56725993293036   22.73062889239985
H         1.82042441347983   -0.82828707312157   23.33748282672577
C         2.01490607159851   -0.13931327612679   19.53493243873087
Cl       -0.67960027730622    2.71467292180364   17.42296253362405
C        -0.91612470538365   -0.92329097017446   19.60040270560623
H        -0.54527650563077   -1.07619926541639   20.60363515125024
C        -0.69476496331437   -1.78079245158880   18.49635217541651
C        -1.49111710785943   -1.36959737501364   17.41551485287146
H        -0.08335252477663   -2.67552021589907   18.50706581349111
H        -1.55419875109037   -1.87227506434412   16.46043152621046
C        -2.25345277133103   -0.23739384716869   17.82958178478493
C        -1.88310504055435    0.04815734708739   19.19615288030782
C        -3.15852280886918    0.62666569086100   17.14296995478474
N        -3.40696614501034    0.40479705000146   15.79173098932596
C        -3.84396815626526    1.51496608625389   14.98301837581028
H        -3.26444945466180    2.39742342372844   15.24800545977099
H        -4.91605816262063    1.73495795935719   15.09052565003038
H        -3.64831223204958    1.27111003518704   13.93794082026274
C        -3.96625673359425   -0.86423359858547   15.38306295810657
H        -5.04890383911031   -0.78032029729643   15.21480554204850
H        -3.80162757128911   -1.61408533728228   16.15170488772783
H        -3.49885828559201   -1.19285078336953   14.45166846410875
C        -3.64829779579977    1.71497249696858   17.84174226617320
H        -4.34621965953204    2.38588333271666   17.36693656350794
C        -3.21614364966722    2.03731434601184   19.13913206414010
H        -3.58246460312251    2.95264732009179   19.57834760793412
C        -2.30851561593769    1.25731573251857   19.81785629675028
N        -1.64263319438472    1.62557222382325   21.01932785743217
C        -1.51802731911667    3.05246974231804   21.23928204842757
H        -2.44653721925839    3.52302685236486   21.59181952295449
H        -1.20760778137764    3.52412170176436   20.30655293392473
H        -0.74899227360642    3.21762022103364   21.99609044443002
C        -2.09519001486243    0.92117127416316   22.20524723150838
H        -2.23321701114811   -0.13215037548942   21.97366804636209
H        -3.04659150736668    1.31964697501581   22.58668457968024
H        -1.34234148404010    1.01861507155881   22.98906083642902

