26
CSD_code = EZIKON | q = 1 | S = 0 | Stoichiometry = C7H15HgS3(1+) | MND = 4
Hg       -1.37738911010041   13.70613003107082    6.27206432327633
S        -2.88865858086091   13.97241916684863    3.62793053747607
S         0.56387842475175   14.58037375062137    4.08763081119960
S        -0.72515500390949   11.31274524199189    4.48307742567796
C        -1.67658658952186   14.18145058364245    8.43099925985410
H        -1.95549801373629   15.22979513814190    8.51287483248305
H        -0.74157806985079   13.99244714806236    8.95399092993729
H        -2.46760787319254   13.54403701532478    8.81971492276996
C        -1.74891918873260   14.67009149483553    2.36524204328498
H        -1.44519390346211   13.85022509634629    1.71840190308084
H        -2.34739362550289   15.36753072538571    1.77720421209536
C        -0.56141312379455   15.43678351335947    2.92087665364107
H        -0.89758864851748   16.30227003140014    3.49257737891548
H         0.05818230816814   15.78347703160198    2.09227315689070
C         1.08790603114992   13.10241242934184    3.12792396796026
H         0.54884159741927   13.12483139030725    2.18360756540766
H         2.14966824348730   13.24360186635565    2.92036912231935
C         0.93212217454462   11.77538106191644    3.85029630149714
H         1.55401405811486   11.75135808251473    4.74561120882916
H         1.24472628892924   10.96896524606579    3.18493506538441
C        -1.76784166171014   11.39659384978508    2.97106292048981
H        -1.13199360114803   11.74730913209281    2.16139970558772
H        -2.06246594994533   10.36847302830612    2.75529234859300
C        -3.03635917968071   12.22081514390283    3.10696307839728
H        -3.69260506200138   11.79201631729398    3.86486705931535
H        -3.56199194089507   12.22616648348546    2.15071326563349

