35
CSD_code = EZIKUT | q = 1 | S = 0 | Stoichiometry = C10H21HgS3(1+) | MND = 2
Hg       11.93561523914574    2.34184627516661    6.82123424553063
S         9.04103226682828    1.93867415174959    5.69750209741705
S         5.24315764143494    3.38267259351838    3.10874352156648
S         5.92437631702940   -0.68694974447098    5.29810745667980
C        14.22346089931158    2.52646510482387    7.33444054457259
H        14.32402739077183    3.41125274686257    7.95566489436311
H        14.71660597771667    2.62459921386331    6.37133548922357
H        14.48525839025477    1.60999336303884    7.85550342779221
C         8.11711567515129    3.46608327649139    6.12893993973993
H         8.04212459457998    3.51736199802714    7.21432272578795
H         8.72729316270295    4.29136254384060    5.76120205531005
C         6.74329091037838    3.47360029849136    5.47194440685640
H         6.17884453617059    2.59519970366776    5.79137201858812
H         6.19995398157293    4.35678858062874    5.81388323839527
C         6.85522486597441    3.49648014801294    3.95395982888273
H         7.49123946607349    2.68373500328885    3.59984452646441
H         7.27494874435094    4.44080697721429    3.60904921592732
C         4.71471543781039    1.68881086304823    3.51691648147314
H         4.72778236439180    1.57863818406160    4.60206703362915
H         3.68065413390053    1.63847788841655    3.17957125140351
C         5.55691626562888    0.60393662808395    2.85853474654872
H         5.27748068759765    0.49834593656892    1.80902060098708
H         6.61499432025958    0.87416580032149    2.88858531349720
C         5.35904026408049   -0.73098644233311    3.56500075728577
H         5.89924626999437   -1.53355414836780    3.06458781466986
H         4.30202291775507   -0.98930234570674    3.61768506832354
C         7.72663347455323   -0.93909131282285    5.06023963985695
H         7.87630094856813   -1.96615158131535    4.72833765950762
H         8.06483677681684   -0.25377386471701    4.28232041894750
C         8.47521151313781   -0.68618307372670    6.36121134362932
H         9.53806707336875   -0.89363579556106    6.20692856721468
H         8.10381333479328   -1.36792318320305    7.12889006205799
C         8.28556619192222    0.73528908940729    6.86571593224743
H         8.73628212828705    0.87513559380793    7.84732313092568
H         7.22266583768115    0.97052952981704    6.90871454469960

