93
CSD_code = EZILIJ | q = 1 | S = 0 | Stoichiometry = C34H46Cl2MnN4O4Si2(1+) | MND = 6
C         5.04570058019520   -0.95003708159047   12.44421662156479
C         6.11611177226681   -0.16447297680799   12.02360975137028
H         6.26751893424049    0.81164423060508   12.46077720168164
C         6.98173802019409   -0.63918907118134   11.05404353760686
H         7.80931933439855   -0.02606758992509   10.73253339290142
C         6.78761855275859   -1.89414620436653   10.50085391371210
H         7.46479381838351   -2.26148096393699    9.74593351986962
C         5.72360097066700   -2.67702758990845   10.91766334732076
H         5.56876526307344   -3.65485745565226   10.48891164692772
C         4.85177861776192   -2.21049588259110   11.88596740100600
H         4.01897838036334   -2.81731917581407   12.20852982141525
C         4.13808785000318   -0.43512207475362   13.47320705347324
C         5.21749153568995   -1.32635541191856   15.57769682580185
C         5.11269503756020   -2.81421531256119   15.22645767733832
H         4.08008702980130   -3.14637446493388   15.30388955960184
H         5.71534432997368   -3.39512842579954   15.91861983926119
H         5.47223154669267   -3.00460753000020   14.21941690654214
C         6.64158547303732   -0.81782455956540   15.33637081841502
H         6.96640597632168   -1.02817530821873   14.32119416918690
H         7.32331526150523   -1.31264366783510   16.02215738412043
H         6.69938912212748    0.25416528509126   15.50886592108544
C         4.84505991051638   -1.13424779986977   17.04756034040621
H         4.94106649130142   -0.09047273025794   17.33973162648129
H         5.50842619269904   -1.72262353470540   17.67484703492942
H         3.82418662989819   -1.46145587559814   17.22869449564561
C         2.38781863448830    0.72008380015184   12.05960899585939
C         2.05265061388032   -0.49793828609233   11.19283810707363
H         2.95106027436299   -0.94705962069719   10.78000826253799
H         1.41586070175894   -0.19175009826646   10.36783679099565
H         1.52122111551538   -1.24223016572162   11.78112069600447
C         3.28088331995139    1.69636851815938   11.28859072765528
H         3.56413070803668    2.53517313597298   11.91999814925950
H         2.74185248898997    2.08062767208024   10.42737811159912
H         4.18242251305118    1.20280960933197   10.93580139654169
C         1.08630275334311    1.41237291642447   12.46369111126162
H         0.45507515934562    0.73397836630284   13.03172456647545
H         0.54399488394205    1.72393327424782   11.57566203862486
H         1.28618266387809    2.29510087092509   13.06621728794667
C         1.10635391771986    7.66514914150446   17.66384180120110
C         1.29159495798682    8.60544112553373   18.67386426753322
H         1.94956017722143    8.38151867769229   19.50017550182961
C         0.63358086095428    9.82131161991440   18.61297799193270
H         0.78095138039502   10.54599782327475   19.39851832641988
C        -0.20861305580533   10.10649843152985   17.55078255325781
H        -0.71967678018199   11.05533563440462   17.50700798423760
C        -0.39429092649715    9.17256903183252   16.54489641432956
H        -1.04968063419037    9.39044513706478   15.71595044879494
C         0.25922123884275    7.95384159131214   16.59696061023120
H         0.11510601069568    7.22275846301772   15.81493275400097
C         1.79456820799844    6.37220306966035   17.71160191719128
C         3.95240365123780    6.91490990980558   16.51023411800996
C         5.17702357614732    6.04580920298666   16.22513741392605
H         5.57693248687018    5.63643393396980   17.14928540354280
H         5.95043193093683    6.64374794429458   15.75170151775380
H         4.92447004599461    5.22689316605842   15.55587163395942
C         3.37505422933305    7.44569439382297   15.19487087389718
H         3.02164224306568    6.62532130550273   14.57459090658712
H         4.14610685020240    7.98209736354845   14.64923892076295
H         2.54916119956733    8.12740199938571   15.37874550549510
C         4.36816010049849    8.07482884166412   17.42071067497850
H         3.55506507313739    8.78257829499580   17.55222727596050
H         5.20875928953489    8.60116048329418   16.97770112754847
H         4.67143223533565    7.69696109577882   18.39422309220810
C         0.14594973096868    4.97990529850596   19.02895423025899
C         0.11142107829131    5.87148575393387   20.27461776228432
H         1.04450760741803    5.78237400938095   20.82600280384089
H        -0.70316850438092    5.55997208554282   20.92202005783096
H        -0.04514886995819    6.91257965823931   20.00777926422350
C        -1.09897511657598    5.21236961404124   18.16811070891749
H        -1.20769355113416    6.26307226671587   17.91354058350579
H        -1.98273055095915    4.90081608334110   18.71740735873525
H        -1.04288683939182    4.63213259065804   17.25012318854579
C         0.20512274840114    3.51643513164724   19.46597508729139
H         0.19911853961561    2.85241026992491   18.60407810180084
H        -0.65950136426296    3.28072006268658   20.07961511099422
H         1.10163449730035    3.32898591239416   20.05172999547623
C         4.59649977566880    2.41860660220119   16.39466775024853
C         2.59263995803702    1.46829269793513   17.77903743469856
C         1.03292236977228    2.59960073315391   16.04647249445062
C         2.98322102865910    3.47479570261620   14.83018708987930
Cl        1.32620355527768   -0.98733423662710   15.41305028866716
Cl        3.98433287898005    4.34524358429216   19.44763722360412
Mn        2.80517324111206    2.46857817051915   16.29332410417947
N         4.25681965669991   -0.56714775201103   14.78689788581697
N         3.04495094030301    0.29347746273755   13.28817186383847
N         2.97705061149368    6.07254719052750   17.19048314190502
N         1.35572603751305    5.24873982025203   18.26202700766173
O         5.73822091145665    2.43740207472985   16.40825515364042
O         2.44579229219663    0.83943750025007   18.71685764853687
O        -0.08151680481834    2.70707251192140   15.82208553492965
O         3.08840974875376    4.12845467828172   13.89626287085665
Si        2.75417129309363    0.45533478230584   15.10032474200532
Si        2.85376237149967    4.31509323732337   17.73212842628416

