333
CSD_code = EZIQAF | q = 0 | S = 0 | Stoichiometry = C132H195ClMoN4 | MND = 5
Mo       16.81288184109203   20.86181919918559    7.19179351263698
Cl       16.24772189528293   18.82859722216640    6.22912685745246
N        18.22198850901971   20.29450550705265    8.42301652583058
N        15.09044947226334   21.36112871020618    7.97066860639327
N        17.37908267439277   21.86041035143356    5.60870261221300
N        17.34327236452998   22.80860548640420    8.11500137365785
C        19.11373111024910   21.33381447533042    8.89928522992448
H        19.86297854294157   21.60762302940770    8.13688788870907
H        19.65511250127798   21.01222534630068    9.79887852358820
C        18.24065566186714   22.53965417856064    9.24137230041132
H        17.63267142642210   22.27264846390419   10.11046890689852
H        18.84469990205305   23.42316573000035    9.49123404538271
C        15.13207112816784   22.35388925939701    9.02653222597244
H        15.46954948504736   21.91767516031168    9.98225366651054
H        14.14211922920759   22.79868512802866    9.19373951714788
C        16.10219816368587   23.44149598682158    8.56894661787420
H        15.64597390434297   23.95564284257143    7.71821184678310
H        16.29545847530733   24.17633115151805    9.36296479349233
C        17.39348570015291   23.30494706093176    5.73276538866835
H        16.37718045153631   23.72905426309338    5.66278001777604
H        18.00257438935989   23.76589573977265    4.94392356139322
C        18.00771132821483   23.62340905680950    7.09448794688261
H        19.06260272958759   23.33702787710651    7.05739836900250
H        17.94097166154123   24.69434514001383    7.33205932540655
C        18.57314040029054   18.99441031820207    8.75779912058693
C        17.58200881435657   18.08186933330821    9.14003339655788
H        16.54385569015137   18.40414737435633    9.12958887754187
C        17.92463365745207   16.81491987747685    9.58735848756803
C        19.26647472666061   16.41309151330047    9.54136689977443
H        19.51467282280990   15.40592432273112    9.84905332431633
C        20.26630833194511   17.28542962103223    9.12056664477905
C        19.90753718608187   18.58642159058667    8.78360765693463
H        20.68451631325221   19.27567019972307    8.48431717788901
C        16.93979402351146   15.87833959857916   10.20818736815185
C        16.61217447699327   16.00528214430731   11.57436361308326
C        15.89022750495205   14.98207217288097   12.18907935621880
H        15.65056282657159   15.07997009192697   13.23142804868122
C        15.50512404489958   13.82700739825009   11.54130298603727
C        15.76519968041292   13.77023273527436   10.18480417888150
H        15.45163576137154   12.89276882612303    9.64525788253129
C        16.42663243014380   14.77584161121509    9.49092898590987
C        21.71931706012017   16.95668187614579    8.99659639807090
C        22.60398726031509   17.14515275515873   10.08151335518079
C        23.96325119791171   16.96149425883653    9.86804140426677
H        24.64893054231458   17.09155449862481   10.68325067218342
C        24.49839612020666   16.63049077023597    8.63583528465660
C        23.61313480654066   16.44659623654307    7.59304631395806
H        24.01372494805824   16.18881637151224    6.63384929843508
C        22.23690421638141   16.58904008246842    7.73530675624233
C        16.95400014900200   17.13763775622776   12.56194502793234
C        17.74450189411063   18.34072061009549   12.04568082032911
H        17.18179318646581   18.89978638652000   11.30500279583550
H        18.69574499291926   18.04496796617228   11.62269040993784
H        17.94598681940341   19.00758741867601   12.88464225344277
C        17.78278921903944   16.53854652672890   13.71423235362409
H        18.11806438216186   17.32814015145268   14.38416212281012
H        18.65706319878679   16.02923716690896   13.31764322325538
H        17.21657769497130   15.82480644440071   14.30461704126101
C        15.63661520069876   17.71564353947076   13.11320957839454
H        15.04098563598587   16.97621800079855   13.63937937500222
H        15.03552739104937   18.11404895937860   12.29863067722038
H        15.85111496038370   18.52461757900792   13.80953029273245
C        14.85704971012132   12.64466878988692   12.24519950391073
C        15.80470126650422   11.44211318685487   12.12500335600548
H        15.38697585231520   10.57859417567103   12.63889199004214
H        16.76908798763465   11.67743069305933   12.57077939379405
H        15.96872931887302   11.17413834299426   11.08474401470191
C        14.60329462556244   12.90716379161819   13.73226650799795
H        14.13629248401345   12.03228063179552   14.18061646505619
H        13.93256128253813   13.75246527183736   13.87010229729847
H        15.53416548432650   13.09706237493549   14.26189813434517
C        13.51117375116920   12.30696727076014   11.59059952868368
H        13.62570788429758   12.08104074661584   10.53428606592668
H        12.82481671019332   13.14419255757309   11.68867508353354
H        13.06842788256127   11.43887709792587   12.07519590376014
C        16.50876064374767   14.51942669890023    7.98124214994669
C        17.41203120742015   13.29969458558260    7.73948729508306
H        16.99816446129158   12.39719107900458    8.18235393581371
H        18.39606498805285   13.46426154222787    8.17085813722973
H        17.53059029723552   13.12998444428710    6.67147995427318
C        17.02262135691366   15.67836280217372    7.13494685575198
H        16.94903771375654   15.41151494549237    6.08278694142559
H        18.05837307526615   15.90489754566416    7.34328473099931
H        16.42392139427715   16.56935709728319    7.28692163225302
C        15.09420220384377   14.22597719221297    7.44392193732985
H        15.14200457418487   14.07996479111555    6.36666682726927
H        14.44187018803388   15.07293007941289    7.64338379899970
H        14.64433022883050   13.33611915640476    7.87408472193443
C        22.17277950172909   17.54001849955547   11.50317060892079
C        21.23063404429177   16.48130192023157   12.08793215961762
H        20.27805721727173   16.46953043243824   11.57463200105758
H        21.05031413710332   16.68812302627094   13.14133735701433
H        21.68252528589197   15.49454503898805   12.00424882931838
C        23.35147740039431   17.63735927282077   12.48838948575095
H        23.86487587349404   16.68473552202512   12.59645093987302
H        22.96194430276934   17.91100647283182   13.46777122681327
H        24.06274692827174   18.40648524135637   12.19542451596072
C        21.51254446956680   18.92569995362786   11.51175601957471
H        22.19085373351874   19.66086472245131   11.08117435725608
H        21.28884633763758   19.22198828711610   12.53516836797242
H        20.58889198429361   18.93592935411916   10.94553365328060
C        26.00513426929710   16.48067901271948    8.48663070239887
C        26.49291199521129   15.36531107092763    9.42165423615307
H        27.56704889542713   15.22705288288459    9.31495678031339
H        25.99745178685386   14.42796889217695    9.17695085530592
H        26.28241104524916   15.59923921878863   10.46159886366547
C        26.68158072175174   17.80660144769688    8.86263750997741
H        27.76031152432752   17.72594123610187    8.74399444531181
H        26.47343476802548   18.07986430683371    9.89342473152914
H        26.32153628808693   18.60645012017084    8.21861978603470
C        26.42754648595488   16.12210319119387    7.05903619387933
H        26.12272400056674   16.89338740924345    6.35536215784021
H        26.00167488811124   15.16956110319771    6.75223351458808
H        27.51147751683993   16.03468031145475    7.01275602860179
C        21.37872092580001   16.24736634608994    6.50552803880309
C        20.64117520988417   14.93711249187935    6.80816772624596
H        21.35991747297656   14.13623394844901    6.97540495189487
H        20.00460838437847   14.66077965161933    5.97078108571813
H        20.02808637657568   15.03278673320453    7.69553629428524
C        22.21383716103248   15.98753364815488    5.23934416867398
H        22.79492604777145   16.86248563758428    4.95700840369695
H        21.53292629477846   15.77083210794040    4.41880485683916
H        22.87174590788449   15.12837805600744    5.35203515355519
C        20.39264865614500   17.35919129782948    6.11309382215174
H        19.49923197163903   17.36733262921199    6.72560344694571
H        20.08086544566573   17.22495472793533    5.07918190321529
H        20.87577202397018   18.33119899313183    6.18724105264611
C        13.86336078773862   20.74691990948554    7.76409234226032
C        13.02273184126426   20.42891031248432    8.83168538566492
H        13.35098525450541   20.61233310351887    9.84508233574549
C        11.79179318401508   19.81259404689881    8.63267535905737
C        11.35687386177483   19.61504296550768    7.32516908346425
H        10.38651165138284   19.17689693372187    7.13266224194282
C        12.15224124163229   19.98419070647832    6.23190771442120
C        13.42273980818130   20.49107459134141    6.45973771914918
H        14.07495925122197   20.74727852868302    5.62877128716208
C        11.05286580398093   19.42382169992130    9.87265904475346
C        11.37390714009908   18.20538084282882   10.51019055733491
C        10.81412064373625   17.93365442846639   11.75392072183499
H        11.07291768327365   17.02238182354865   12.25352000946268
C         9.93939924191289   18.79336473389360   12.38699203329318
C         9.61431774824473   19.96426973452352   11.72545419798015
H         8.92230463651362   20.62680782064937   12.20903737775278
C        10.15261408790090   20.31639180884786   10.49525533887503
C        11.54367250315438   19.89666896135692    4.87009313597316
C        10.92892168736549   21.03146809118277    4.30071710335816
C        10.15767587732166   20.87007446502617    3.14953799145464
H         9.68601686370631   21.73613945803881    2.72412005478651
C         9.92927069228948   19.64847697419669    2.55161457766159
C        10.61245898427251   18.57007189769020    3.08200123127290
H        10.47597810057007   17.60720684362562    2.61990970877691
C        11.44617187022390   18.66351632075965    4.18939761941036
C        12.24683353108752   17.10102804717415    9.89106624347773
C        11.48004018901112   16.52088566200185    8.69632705200154
H        11.25452869495687   17.29041394066085    7.96897884391856
H        10.54089052803448   16.08498674699399    9.03392411044548
H        12.06751823537773   15.74374990818976    8.21295622392082
C        13.64376356913943   17.58538842725812    9.47069806953368
H        14.31657830413822   16.73457029839582    9.38476326019393
H        14.05204144099346   18.25200315429671   10.22746674264476
H        13.64339600160377   18.10014424802848    8.51739417579575
C        12.50099674010802   15.92355315057200   10.84852242784246
H        13.12773974317103   15.19597644812497   10.33696770253063
H        11.57895099705114   15.41897736021668   11.12956371253189
H        13.03507583403286   16.24112578065146   11.74114286904174
C         9.32871669109327   18.50556156588881   13.75049695430552
C         9.80275296018541   17.17603908475195   14.34443495069539
H         9.33973992494443   17.02832882799029   15.31833797609169
H        10.88170976073073   17.17146878610301   14.48156285753288
H         9.51944999856767   16.34005737717194   13.70905715287624
C         9.72137483515643   19.62641293148297   14.72339077225507
H         9.30937680460010   19.42923406060130   15.71111839737947
H         9.35065720899844   20.59102906010057   14.38782813352475
H        10.80467401908138   19.68765438739078   14.80629941438300
C         7.80095558798095   18.44804074587110   13.61348686740882
H         7.51740785988080   17.67265591950925   12.90472593498926
H         7.39855846839445   19.39379081298851   13.26113504780025
H         7.34462333577440   18.22147934722474   14.57510071118063
C         9.71436038275412   21.66723568742319    9.90712592621357
C        10.90915311449950   22.62236962207096    9.77932122284088
H        10.56788419796033   23.59694255096712    9.43446167426654
H        11.64740229326556   22.25274132707176    9.07761799746055
H        11.38685667744230   22.74857541199746   10.74980049988498
C         8.68610600876423   22.40417834209405   10.78399008815191
H         9.09194037838026   22.65517938192991   11.76151339483387
H         7.77254925775321   21.82630865113087   10.90337952133957
H         8.41961327549877   23.33909020729346   10.29335473537874
C         9.03038260535902   21.46269368802038    8.55031073577235
H         8.58548078945901   22.39815102514465    8.21566665025557
H         8.24001052559689   20.71967555728576    8.64029918376095
H         9.73264742653877   21.13071651546025    7.79692989784512
C        10.95080018531326   22.49788176735517    4.77369044238719
C        11.75385546148269   22.84798682813264    6.02726402278556
H        11.60795789681140   23.90618894463221    6.24655884878375
H        12.81628440440298   22.68300942567695    5.87966214391526
H        11.42119963176416   22.28313995161507    6.88844718032350
C         9.50073175756737   22.93580302516231    5.05481963031859
H         9.04094661064151   22.26028864584520    5.77130176127997
H         8.88832464167560   22.94319745397884    4.15849070701314
H         9.48758631264100   23.94125142762186    5.47145595353218
C        11.54767652822287   23.36221510537460    3.64668136746824
H        10.97086299146874   23.31210929152943    2.72845610471726
H        12.56165539811263   23.03598545072498    3.42519150869362
H        11.58259011291653   24.40441976639488    3.95954985426042
C         8.96531074439708   19.44709784460083    1.39247156381824
C         7.83761387417706   18.51881748197606    1.86701413732341
H         7.11139884018352   18.36840802474884    1.07062988864349
H         7.32716459669931   18.95481712960674    2.72344295555043
H         8.22629463485906   17.54802290770906    2.16248982480205
C         8.33554186883134   20.75729453732850    0.91137722002216
H         9.09702405029678   21.45027755224389    0.56020500476318
H         7.75795936812482   21.22919965112753    1.70309087822977
H         7.66095982899727   20.55252904909740    0.08220039123084
C         9.69118596411768   18.80838031911589    0.20123820875309
H        10.14026101642531   17.85658040015758    0.47027247885781
H        10.47728329809377   19.46796125878319   -0.15749266761489
H         8.98977017972945   18.63278397098362   -0.61216134963915
C        12.16020034774860   17.34864117244596    4.52574848775554
C        11.11138532489618   16.32914996876883    4.99731815344515
H        11.59895924396912   15.40313702476078    5.29436782253655
H        10.39374827742689   16.09872323765626    4.21375280811326
H        10.56223106589897   16.71595926344651    5.85177339303951
C        13.25965846945009   17.43903517360568    5.57779098497519
H        12.86979181452700   17.69603873418275    6.55215800999707
H        14.01437170694641   18.16347130785693    5.29278495372870
H        13.75146301011377   16.47240039034475    5.66507947454719
C        12.85913951729925   16.81610582948840    3.25922796118192
H        13.40731553492369   15.90903136542249    3.50579585308334
H        13.56940103457419   17.55341915074775    2.89244050009869
H        12.17059898981670   16.57183757580913    2.45577550291289
C        17.59419571352355   21.35999172523950    4.33254864760831
C        18.39470943169922   20.22465468973554    4.15600178252250
H        18.80271588976080   19.73184443831379    5.03492155857691
C        18.71554886254705   19.77970856546109    2.88248342721851
C        18.13314597735620   20.40573769188611    1.77200188062245
H        18.35570831166112   20.01908803210778    0.78627865775212
C        17.29419571539636   21.50640661027425    1.92240421118889
C        17.07955631991760   22.00093552428796    3.20473573242470
H        16.45286280019566   22.87354839859297    3.32368587734459
C        19.73253307183563   18.71524192998442    2.62725564638845
C        19.34632992888335   17.40124531813737    2.28470572650485
C        20.29907313111964   16.53320578038132    1.76597862877267
H        19.98054128020208   15.56222030082509    1.42696533689839
C        21.63696259857372   16.85839284607443    1.64272309336003
C        22.01047557273647   18.09798769902107    2.11822889495299
H        23.05218281406726   18.35750944052867    2.08710148079014
C        21.10348045068436   19.04572178917824    2.59273688446906
C        16.58742016271498   22.22971259023400    0.82120965364965
C        17.19062430802590   23.32413943686215    0.16289854036146
C        16.43164114106164   24.05410299654022   -0.74164747992082
H        16.87654325501176   24.88373490170199   -1.25687681806322
C        15.10209069281912   23.78033005652666   -1.00926631277983
C        14.53798970256539   22.70076769820436   -0.36020850765061
H        13.51000988050229   22.47584485024109   -0.55934581388539
C        15.24168140669518   21.90747412679354    0.53959045435879
C        17.95308243655974   16.77194789653388    2.40528929195937
C        16.91892398580332   17.58538963635839    3.17500373281753
H        16.66820028424302   18.50644838155368    2.66878846188770
H        17.26635690931712   17.81116666077872    4.17695026950278
H        16.00478583253777   17.00299968770930    3.26987169053689
C        17.41203219204746   16.50363883777019    0.99212255488644
H        18.03093166715995   15.79110222406174    0.45241928016013
H        17.38077226749386   17.42470201006113    0.41590300050541
H        16.40285579948459   16.10148509754650    1.04980212366548
C        18.06956639425288   15.43986469370779    3.17219500857504
H        18.50665764809933   15.61623373228751    4.15227651347613
H        18.66937989751533   14.69577106717885    2.65653277948199
H        17.07658490576053   15.01774211692538    3.31304954352898
C        22.60184692890417   15.88633307651816    0.98117325011471
C        24.04763898896449   16.39062611451746    0.98731899921203
H        24.14118841910771   17.32204687870594    0.43345766901283
H        24.69117044745263   15.65307738021829    0.51150580773566
H        24.40383993950171   16.53993594305877    2.00429746012331
C        22.16296926632840   15.70271793858929   -0.47908773942629
H        21.16096816338862   15.28623713612332   -0.53793592875715
H        22.84407254128541   15.03039563412585   -0.99708753060433
H        22.16288706623876   16.66084523012352   -0.99495326565192
C        22.57360919348186   14.53167212267338    1.70096147333965
H        22.90701359671890   14.64507608081303    2.72937928327081
H        23.23626740242124   13.82932694535299    1.19891961206525
H        21.57510623659534   14.10409734466965    1.71061733850872
C        21.80413936159386   20.35840600525130    2.99305071429188
C        20.94988980050066   21.50258717948830    3.54072602621520
H        21.59586548342075   22.36407287769827    3.71307510438967
H        20.48880456027599   21.23856540151017    4.48706772393025
H        20.18096846658680   21.80111474195021    2.84015630103792
C        22.52808628435066   20.91518796368999    1.75241790959801
H        22.96484317152511   21.88624233274474    1.97819665742101
H        21.82328949015749   21.03653633770154    0.93413472178388
H        23.32857521622262   20.26501577168783    1.41319973397269
C        22.83031605187103   20.04492628026593    4.09853949345353
H        23.59314507100128   19.34264170584933    3.77729015798581
H        22.32603232360388   19.62138115007479    4.96444377279148
H        23.33206766141535   20.96061092741892    4.40685762076893
C        18.64519238618747   23.77549183229573    0.37071436048125
C        19.04152429625336   24.96915871343489   -0.51665350151532
H        20.08336139025114   25.21649196809884   -0.31863486273213
H        18.45005490951873   25.85454920668230   -0.29412454044148
H        18.95860726482597   24.72875323438882   -1.57405934146002
C        19.61255686086003   22.64523226529046    0.00033779124843
H        20.63526013222388   23.01810853266704    0.00242080762789
H        19.38501551024228   22.27285445402776   -0.99688103751826
H        19.54848177512480   21.82184540048710    0.69950033556923
C        18.87354255046307   24.24075626406280    1.81551780171393
H        18.74071207197025   23.43281410186006    2.52511163064048
H        18.17271667003737   25.03693006397408    2.06236024351758
H        19.88546526455227   24.62741901154438    1.92357080435542
C        14.33645854494103   24.65627462438444   -1.98978794608492
C        12.87840635161432   24.22070388700525   -2.16132634991912
H        12.38189415951113   24.88540586376198   -2.86584039058919
H        12.34132582023483   24.27097083947539   -1.21688557395075
H        12.81567687353690   23.20880809802470   -2.55496751934532
C        14.34199653595912   26.10439465880886   -1.47997936556983
H        15.35338534861665   26.49356567591429   -1.40166339314878
H        13.87951291944219   26.15677225472821   -0.49635501726615
H        13.78334082775017   26.74500042350710   -2.15952089816593
C        15.01883645727314   24.58633030464718   -3.36296077088414
H        15.04035544281657   23.55819538068249   -3.71854598458936
H        16.04123669265503   24.95109753030235   -3.31676450928824
H        14.47436230908893   25.19103616744944   -4.08555850269135
C        14.50378850218428   20.67981152165368    1.09926109557172
C        13.01957308812363   20.63044906664379    0.69605411866997
H        12.57453658319116   19.74089501189420    1.13709943556821
H        12.89098538513417   20.55868683534871   -0.38191842591618
H        12.47240524488024   21.48982862106118    1.07688058782012
C        15.15329628964072   19.43210208135562    0.48815209082286
H        16.20951514275513   19.38976566022100    0.72215140058132
H        15.04460671086069   19.44989672272114   -0.59529550685002
H        14.67427967497618   18.53285569510124    0.86846149979894
C        14.50459172402529   20.61041597213677    2.63471828371399
H        13.70158121779954   19.95876084738356    2.97303292319413
H        14.32453723187800   21.59833748888338    3.05354553858295
H        15.43231484036027   20.22459800665774    3.03980811757592

