48
CSD_code = EZIRIQ | q = 0 | S = 0 | Stoichiometry = C16H26O3RuS2 | MND = 9
C        -2.32644388442340    4.09874166166552    9.91469170265552
H        -2.00568389979682    3.07370899739470    9.74662295323194
H        -2.58303351815666    4.30056394656420   10.95006628117535
C        -3.04702633564987    4.76170690935136    8.90113763890844
H        -3.26773658886842    4.19765923783268    7.99109368705925
C        -4.11030052469605    5.73713587981836    9.23593746132160
H        -5.10491773710647    5.31896128421092    9.36014666753292
C        -3.86198749261040    7.02525268732735    9.34799001264170
H        -4.55549095284210    7.81184184813886    9.58341598665826
C        -1.53689118054597    6.49460275711006   12.40772925615239
H        -0.96222574942124    6.61849494353557   13.31794561685895
H        -2.25820308882466    5.69526922250095   12.53261151999031
H        -2.02278773996915    7.41376103578435   12.10544488688866
C         0.73857367131003    7.47745505649122   11.31682741203892
H         1.53659453430817    7.42214285073352   10.58797759073050
H         1.14115444436302    7.40525772227355   12.32044030364701
H         0.15058504291337    8.37345000980908   11.16934827537941
C         0.56391427024765    6.19720683751108    7.52288635991852
C         1.21588342613143    5.24142818950766    8.36529122293035
C         0.56497948616068    3.98478189844139    8.20878844365324
C        -0.46062146759076    4.14033641425233    7.21695240379893
C        -0.45533258831488    5.50965530516770    6.78356880093573
C         0.99583555757868    7.60005409003862    7.23089364753467
H         1.67832476396094    7.97806896079421    7.98890523064776
H         0.12444405756442    8.25285945602210    7.19035381667058
H         1.49650247880369    7.64064365975949    6.26163576071349
C         2.49452541310247    5.40254378559623    9.12409533845025
H         2.36360154593738    5.11597801198719   10.16732985241039
H         2.87260085336981    6.42076319393748    9.06760170010195
H         3.24480174856571    4.73876460274394    8.69067037280277
C         1.04902515926386    2.70598707216932    8.82007062448821
H         1.18883539572585    2.83527986322071    9.89226687899338
H         2.00724387416214    2.42172379826301    8.38098220061834
H         0.34273629453990    1.89725066881301    8.65280621035946
C        -1.18321194211352    3.00702154982455    6.55166552103694
H        -1.50928630539066    2.26166058428709    7.27458786719987
H        -0.50797341722008    2.51973523366743    5.84587880843072
H        -2.05110468012172    3.36022725237537    6.00007461009443
C        -1.18424920083740    6.09324629716229    5.61517274723493
H        -1.66325348838786    7.02648295463160    5.90962272485390
H        -1.94361775392369    5.41271358601298    5.23866726110516
H        -0.47869307613057    6.30821065029890    4.81144450267811
O        -1.69518499455334    8.29339754433250   10.08947893988127
O        -2.16698886538173    8.12187245163223    7.69290545812444
O         0.38074728686913    4.89924921662566   11.56334553589768
Ru       -1.01303353555212    5.48060657309886    8.93388198113129
S        -2.13028678673630    7.44058718220124    8.98004649144476
S        -0.37424250972633    6.05295706509665   11.07010143299720

