72
CSD_code = EZISOX | q = 0 | S = 0 | Stoichiometry = C32H35O2PRuS | MND = 9
C         2.20899802547936    5.04571721057176    3.15827801303051
C         0.83287390985751    4.74767710717155    3.04909268400931
C         0.02272600835288    5.39830611477645    1.99466761219674
C        -0.22043612097217    4.78701805445611    0.85606060152631
C         1.52369075981340    0.78104339185721    2.91257581939826
C         2.93558067889844    0.95832529923414    3.02723320216978
C         3.18456092564375    1.87237307962118    4.11100160492507
C         1.91887594640138    2.25360417795327    4.65417777249729
C         0.89244321623375    1.60462738474599    3.89519362941122
C         0.78768338746064   -0.23447885444611    2.09818904887149
H         0.01940440473636    0.25320924788935    1.49714795798104
H         1.45111328717270   -0.79311241309153    1.44172577161591
H         0.29032255807772   -0.93924051183956    2.76725509485668
C         4.00913544618363    0.10176118502664    2.42158168238060
H         4.78153163834274    0.70206323184715    1.94096096818131
H         4.48214161076937   -0.48259347036031    3.21315066249775
H         3.60460199101333   -0.58780062624400    1.68603406311589
C         4.50796336979834    2.04245536225700    4.79669810977135
H         5.33131438243846    1.91429959105035    4.09897611595657
H         4.59744390541872    3.02341700033760    5.25839104282061
H         4.60392700921765    1.29042926135054    5.58396594431462
C         1.73126650861386    2.95176072228697    5.96781286510270
H         0.77344634239630    3.46446357336087    6.02260208569369
H         1.76048918557986    2.21071542457044    6.76944416900226
H         2.52302571052174    3.67482568270181    6.15346014018415
C        -0.56343345080230    1.53326452487404    4.23283463404224
H        -1.15743002846653    1.66631559231967    3.32939354627923
H        -0.79606781327058    0.55380160838308    4.65548936639079
H        -0.84523781515523    2.29430696503098    4.95713112766199
C         3.62018107640516    2.44936575450679   -0.66593592434896
C         3.06901600775261    1.17553056534312   -0.66986151659988
C         3.19531393441351    0.36421236884092   -1.78172878600719
C         3.87599303302870    0.82031584804666   -2.89853594629872
C         4.42763521603706    2.09094722785327   -2.90056251777280
C         4.30273215034137    2.90569480475134   -1.78987131358822
C         5.21935412969904    3.43066883509110    1.42097066542395
C         5.53965572560638    4.15316950758521    2.56860763319237
C         6.82964372913463    4.15872096353845    3.06592983464837
C         7.81851818871630    3.41935087083139    2.43719229161856
H         8.82586296766955    3.41720813947641    2.82639824478731
C         7.50454702620415    2.67487642833192    1.31361982117111
C         6.21621420667481    2.68106381067858    0.80498618990576
C         3.42600211816118    5.15045176329480    0.05317185236308
C         2.41517052857823    5.38425281726400   -0.87832971719981
C         2.28164482551325    6.62884951381166   -1.46428026698274
C         3.15068110597909    7.65532054892472   -1.13006430226320
H         3.04450380413237    8.62851846335110   -1.58661755655587
C         4.16178819207188    7.42623325012012   -0.21322721035396
C         4.30146743674351    6.18199705476889    0.37815354716466
O         0.87741319961894    2.80329396494679   -0.48570684016051
O        -0.75376577967531    2.29801480450280    1.26007675358033
P         3.48365337312006    3.48892586848298    0.82704589021243
Ru        1.98641841756215    2.99310426157449    2.51917768983457
S         0.41248348062365    3.08326479215598    0.86838270793045
H         2.63873635055535    5.10913612730446    4.15774435002816
H         2.61341242875186    5.78226078109216    2.46584193592457
H         0.27160141182710    4.58479631750219    3.97258072010190
H        -0.79642405357209    5.14011236905316    0.02061707484670
H        -0.35251250527869    6.38947188369428    2.23165462929103
H         2.50434344940461    0.85170388368371    0.19032859195554
H         2.75236557999280   -0.62125947288110   -1.78502601011726
H         3.96900326222064    0.19021682082847   -3.77118203401564
H         4.95340240815169    2.45142543194070   -3.77317756680512
H         4.73273721110437    3.89826383876982   -1.79460383121506
H         4.75891043179821    4.70145393366372    3.07523944495333
H         7.06462501886632    4.73336957835832    3.95031070735679
H         8.26682216676764    2.08490246382121    0.82574395967695
H         5.99135539449277    2.09750527893824   -0.07569353727444
H         1.74910250108313    4.57498752906034   -1.14045108103949
H         1.49733979413821    6.79933799240790   -2.18712212781153
H         4.84929291407236    8.21916192222336    0.04431954861761
H         5.10260316160194    6.01674617482902    1.08385866605383

