51
CSD_code = EZISUD | q = 0 | S = 0 | Stoichiometry = C17H28O3RuS2 | MND = 9
H         5.27097775745350   12.03126937437148    4.85269947056079
H         3.57306448765799   11.40490468290374    4.77406145347508
H         5.78292059334152   11.00185989129065    2.70491150289328
H         2.73036180389273    8.48418913057650    1.63422669185715
C         4.60792095916448   11.25493495170012    4.48036440581497
C         4.89774258136382   10.64966041800261    3.24350756395683
C         3.80854532040470   10.21292423156283    2.32325861791695
C         3.47389005119015    8.93683333605241    2.26538564225999
C         3.19104613667382   11.30453054956016    1.49680280971004
H         2.38434741430819   10.91690647111010    0.88098977299664
H         3.94567222389591   11.74983272102702    0.85009083831515
H         2.80487639295569   12.08986050130800    2.14522968204743
C         7.03129138865477   10.00862856770852    6.30622833247445
C         6.68639455831316    8.67572716495367    6.65340809214901
C         6.93787315692036    7.83400865611617    5.52028425531179
C         7.54390439330361    8.64005893159076    4.49873460884009
C         7.56414186432444    9.99261812220454    4.96727115555570
C         7.04374081834562   11.15258699501729    7.27362126712011
H         6.08513625908442   11.22285696934417    7.78526561443191
H         7.24169179134839   12.09484115725025    6.76990692441021
H         7.82144816706051   10.99537643533064    8.02356250671994
C         6.31811655027560    8.26364833951513    8.04350089629681
H         5.42901770327652    8.79553088650232    8.38250070107011
H         7.13653821481775    8.52513037734706    8.71676897982104
H         6.15390436966320    7.19078668236103    8.11271924930893
C         6.86558579387933    6.33966052189667    5.46293422217600
H         7.86072172031477    5.91050030619654    5.59740403661726
H         6.48731168720680    6.02547034678479    4.49096855446198
H         6.20876861765216    5.94034983308975    6.23269671228802
C         8.21463678090476    8.09627366296159    3.27861041419891
H         7.49054847237290    7.56277022040437    2.66250074435034
H         8.99516930620693    7.39410635091702    3.57314736962416
H         8.66323441126144    8.88953465504148    2.68653715586212
C         8.29126642223814   11.13273269462489    4.31789456235204
H         8.31864058944617   11.01654103647397    3.23690855496547
H         9.31910369542996   11.15992737191934    4.68473748851301
H         7.82411462507234   12.08719858281997    4.55118805508618
C         3.16835840005330    7.31361581825163    6.80020426368578
H         3.98991076562473    7.08453793645029    7.46606399195366
H         3.08515227738711    6.57571892894768    6.01340243304150
H         2.25003335545809    7.41776948814069    7.36556971534353
C         1.86362522809233    9.07817325163386    5.21319708400456
H         1.84419040759771    9.97797143120541    4.60804979336971
H         1.11912827573200    9.13627445397193    5.99891868528444
H         1.73366037620554    8.20135805634342    4.59175301424769
O         3.57857816604831    6.96636964572400    4.00032844072712
O         5.44631597253712    7.24159621796333    2.44414206357861
O         3.51166714916058    9.87885275478907    7.11322064140283
S         4.49925695261578    7.89334832355857    3.33828211152300
S         3.50213674381217    8.92187870810561    6.00544552489542
Ru        5.43211885000488    9.30486385708087    4.83029333113389

