48
CSD_code = EZITAK | q = 0 | S = 0 | Stoichiometry = C16H26O3RuS2 | MND = 9
C        12.96511851159408   19.44647729458067    8.45052816742542
H        12.53846947221543   18.46283370501843    8.27855258534276
H        13.19201744462338   19.63290399621946    9.49672987604344
C        12.56395758679081   20.52619931072669    7.64247942678397
H        12.48736272591707   21.50966207842388    8.11581653244456
C        11.58380033351828   20.34724531845242    6.54301805167914
H        10.53819326281581   20.36173828180368    6.83648052200489
C        11.97398914187812   20.21528298156424    5.29221404315377
H        11.35876085411043   20.10395589692900    4.41773156921293
C        15.83376947029298   21.89179790060183    7.26861499435799
C        16.61442123855637   20.81943799945961    6.71866480682251
C        16.83202695915545   19.85544131813232    7.75862239208301
C        16.10305362740926   20.26428882766400    8.90592506685850
C        15.47959418146810   21.52945029147746    8.60693982636631
C        15.63309651922643   23.21708064096863    6.60770945182716
H        16.60216169488482   23.66306464528984    6.38227336099659
H        15.07496796069891   23.89720090838442    7.24549626286693
H        15.09063151393570   23.08821935616812    5.67087999983880
C        17.29291466849453   20.88917476966244    5.38562614382724
H        18.12261822450882   21.59819997062207    5.42373159762122
H        16.58742310465251   21.23123320546108    4.62935856248871
H        17.68006704548369   19.91924126260005    5.08122723413651
C        17.79166528728409   18.70804666832993    7.76716609283409
H        18.53506196152221   18.87635622358188    8.54820791700742
H        18.31380581191824   18.61576493324939    6.81768321193303
H        17.27710799534148   17.77476395312024    7.99667419864885
C        16.19091503149994   19.59269940440766   10.24215536474634
H        17.18727686685281   19.73723687536744   10.66453472380751
H        16.01602310442548   18.52312550412496   10.13792846344622
H        15.46366702673057   20.00080910288116   10.93886941503145
C        14.84603528556651   22.43402397669624    9.62191071315599
H        15.62755080699146   22.96946622832120   10.16438547901794
H        14.25848253090877   21.87143117566189   10.34454618149807
H        14.19881032328524   23.16662030924586    9.14543063368341
C        15.78554543657658   17.19380812262659    5.29990783000845
H        16.78822690033326   17.42784443641126    5.63308583099110
H        15.55911411217512   17.68652792157831    4.36367299439244
H        15.65505670328495   16.11980436565483    5.24114627603400
C        13.12682918980575   17.04008708974145    5.80529582218850
H        13.25987246062273   15.96536231045111    5.85374678640131
H        13.06156401082608   17.39807085432355    4.78570217640750
H        12.24878938852767   17.33694017815810    6.36865115036353
O        13.99383842559883   21.69945816449975    4.58812670131201
O        14.19106699786839   19.29122267139706    4.20736717105533
O        14.90808421120246   17.04781469508353    7.75089534886506
Ru       14.60832235473350   20.01864392460544    7.19275641803879
S        13.78231583240275   20.36073983575645    5.12058059117837
S        14.60525640143870   17.81820111448846    6.54365203384793

