65
CSD_code = EZIWEQ | q = 0 | S = 0 | Stoichiometry = C22H38Cl2Si2Zr | MND = 12
Zr       -0.37026954415936    2.61705266287338    4.15538485370860
Cl       -1.96260344371446    0.89377371809758    4.47468162828875
Si       -3.65395409827920    2.76998623253630    2.53616016728754
C         0.38507168614334    3.02133954562186    1.69265239046237
C        -1.82195357420930    3.15369165453499    2.36503079515922
C        -0.82852326641319    2.30056048279426    1.78853632875872
C        -1.18313615709281    4.40857982845968    2.64007819825180
C        -1.92050980794059    5.68507517242465    2.93878543686295
H        -1.30912316035259    6.39483305535756    3.49364830439534
H        -2.83148983274903    5.49307874544703    3.50024387156500
H        -2.20352529112172    6.16749463694935    1.99941518159896
C        -1.02488972628190    0.90965570143605    1.25746148282925
H        -1.18359200776109    0.93504525907274    0.17642405236620
H        -1.88672741073850    0.42956397415035    1.71686027315729
H        -0.14218048736542    0.29791924958236    1.45427668035076
C         0.17305356463485    4.32516324375147    2.22263899818941
C         1.10017028629960    5.49152172037767    2.00425549381330
H         1.16192335891715    5.70410120075958    0.93424243542707
H         2.11228397181958    5.29806764944633    2.35753641435921
H         0.73007340495196    6.38882142904781    2.49295635342505
C         1.60417181989008    2.53766785613977    0.95860439837129
H         1.32571981753412    2.24255119995541   -0.05451096378105
H         2.04650209677959    1.66759568419779    1.44706974957085
H         2.35761689327745    3.31909973547225    0.88858953307927
C        -4.23100686965747    3.23027488414663    4.30128265368212
H        -3.37688922936488    3.33110097592223    4.96904098605492
H        -4.86117255910601    2.44577906285618    4.70561522436147
H        -4.81043822034950    4.14936578110437    4.32139806382796
C        -4.62905643476503    3.83547821529691    1.28667250472087
H        -5.68765122160828    3.61015324195438    1.35338554272831
H        -4.31490354260230    3.63366623544724    0.26847365470233
H        -4.51017894415899    4.89941120250688    1.46052901708352
H        -3.98820868065602    1.36991156360494    2.22376943965760
Cl        1.22227360470113    0.89382041545516    3.83658121707244
Si        2.91337276383041    2.77008630953738    5.77447586955387
C        -1.12561756024643    3.02134101635644    6.61815990066629
C         1.08137261657208    3.15372524755563    5.94571124018479
C         0.08797992355418    2.30059820557380    6.52229318968610
C         0.44252436173962    4.40859015812398    5.67061700873277
C         1.17991478833572    5.68509318149757    5.37199188285116
H         0.56858684617096    6.39486830095597    4.81709825700442
H         2.09094012636756    5.49311419150675    4.81061247228093
H         1.46284768998058    6.16747039311254    6.31140540111858
C         0.28431875073470    0.90969911076980    7.05338647694869
H         0.44272695862578    0.93508903139984    8.13447064645686
H         1.14630366906689    0.42966496410023    6.59421315716291
H        -0.59830462496849    0.29791306333175    6.85632910301237
C        -0.91365362576315    4.32515192206777    6.08810386642828
C        -1.84079714214331    5.49146892532124    6.30659545460765
H        -1.90269136746181    5.70378135408707    7.37665135024863
H        -2.85286825790607    5.29810171911352    5.95313994123430
H        -1.47063716147696    6.38888259726399    5.81815525949479
C        -2.34470610926046    2.53771466861817    7.35221497049349
H        -2.06620639894567    2.24239229548277    8.36527942168535
H        -2.78719582293361    1.66776050754411    6.86364712998720
H        -3.09805410593170    3.31924971034870    7.42240231887748
C         3.49039931967367    3.23035000568199    4.00935491082797
H         2.63583745270560    3.33151349241465    3.34192647850588
H         4.12021778549986    2.44534677212300    3.60485155275329
H         4.07020630721691    4.14939963456367    3.98933331244671
C         3.88864782209931    3.83548030426447    7.02394125451989
H         4.94725197663971    3.61023922163208    6.95705468353503
H         3.57468228924121    3.63358140935608    8.04218553276430
H         3.76968858749195    4.89942202907746    6.85020986535626
H         3.24763514698955    1.37000904045211    6.08691772918094

