40
CSD_code = EZIWAN | q = 0 | S = 0 | Stoichiometry = C8H22AgN3O4S2 | MND = 3
C         6.38931271443125    7.03938360962413    3.46491599735022
H         6.57719308256139    6.74704726990541    2.44092028391345
H         7.30855238221888    7.04499439632203    4.05999003377614
H         5.89990657313496    8.00576527600357    3.51052752173316
C         4.90334566858069    2.96351566455725    2.38272585139269
H         5.22377888922933    2.60395577415773    1.41313509680006
H         4.19170520834690    3.77694875065607    2.29479358306425
H         4.51516050860193    2.16076129466083    2.99543182803933
N         5.85704627344180    4.46613931908168    4.50563034702624
S         5.17831942671998    5.87156242081654    4.18536254156958
S         6.32954827222240    3.65191126250348    3.22714642457423
O         4.81661961986692    6.47000785771287    5.44865362281312
O         4.13351446309826    5.72569444702776    3.20176597351169
O         7.16868119478040    2.56902219740729    3.70859711074303
O         7.04100642699435    4.53783759243079    2.31519634972584
Ag        8.05849658522523    4.87327317191511    4.58352956880631
N        10.24105773861193    4.20258504217253    5.35910863455402
N         8.28706301042760    5.69487123358428    6.94092606851222
C        11.31030533638479    4.35919519391266    4.37291044269464
H        12.24833967931666    3.91085811533419    4.72893683165566
H        11.47923242728244    5.41554152496331    4.17363894650186
H        11.01491235316139    3.87262111568897    3.44594847753724
C        10.02642071907930    2.76888520754678    5.59072240259814
H        10.93479699329018    2.29960048910109    5.99383383277580
H         9.75379245090204    2.29171924449255    4.65040125513121
H         9.19828046807036    2.62190326119217    6.28212979137583
C        10.61275658606989    4.88102330318964    6.60448105215093
H        10.98469868071327    5.87298131488167    6.34325924101048
H        11.41996371517547    4.33407407246734    7.11611616003165
C         9.43041015334635    5.02855722966325    7.56782635198174
H         9.11248744096712    4.03810542918794    7.89304238347258
H         9.77246854430508    5.58217948601853    8.45593871852932
C         8.41857973653592    7.14693220117135    7.03202683348953
H         7.53817043905819    7.61098412468959    6.59325393277922
H         9.30446187631008    7.47964826040227    6.49414804961319
H         8.49708142893820    7.47321927677044    8.07932491406960
C         7.03500542370384    5.29710166143613    7.59278658865746
H         7.03341086253473    5.58524397549286    8.65242598980591
H         6.90622424476653    4.21954158864432    7.50603798435719
H         6.19559240160465    5.77210734318155    7.08495298192427

