59
CSD_code = EZIWAM | q = 0 | S = 0 | Stoichiometry = C24H31ClOSiTi | MND = 12
Ti        4.44798482404884    9.08681712274380    2.65354092116336
C         3.48425829682508   10.69511191352758    4.12528926386690
C         3.68791610522304    9.47528697738563    4.83722466502321
H         2.90641808067647    8.91653664254766    5.33742443942718
C         5.07210877856594    9.29621302776105    5.03510135313586
H         5.54064301711167    8.52922720577451    5.63933248235047
C         5.73684993938891   10.33829644891014    4.36804997029946
H         6.80499854471054   10.51644669713201    4.36677222118610
C         4.75813421095214   11.19415443092756    3.81043491048442
H         4.96583955405365   12.12935662537511    3.30642904754919
C         2.27375298900604    9.69894592614233    1.96563452656579
C         3.07893273623229    9.82067737325404    0.81973626120250
H         3.25898033616853   10.73306774640524    0.26522828104725
C         3.50385916974077    8.53106918368572    0.42005157724096
H         4.06271855736947    8.29972527021827   -0.47819273471991
C         2.96526977358556    7.59881794037611    1.32058833740788
H         3.04616793402343    6.52182969493614    1.23854943869081
C         2.26190401795058    8.31462912384469    2.31048944665039
H         1.63327339708945    7.87278156949077    3.07327555025603
C         5.57512879012178    6.31941597236460    2.80486696284201
C         4.89310916778457    5.35590217501196    3.57354773502911
C         5.27949417493751    4.02712911061529    3.48272474526051
H         4.76338310351624    3.28467308376175    4.07241909808542
C         6.31504823297945    3.63890527109101    2.65605106144959
H         6.60244680040181    2.59983535368958    2.59833626297855
C         6.99077642028080    4.58774711903836    1.90790080610580
H         7.80364493316057    4.27504314755750    1.27269325571467
C         6.64016371931495    5.92487965674835    1.96489742958071
C         3.78334005412053    5.77440894465797    4.50964174841138
H         3.60457568245325    6.84651745216234    4.35014501426228
C         2.48225969703749    5.02119306518351    4.22488172962175
H         2.18216227051428    5.15062865993605    3.18759106174862
H         1.68585697868606    5.39530557685802    4.86556825909022
H         2.59771758107083    3.95753259599322    4.41694418497741
C         4.21502040236025    5.56691746635774    5.96438795789006
H         4.36484150375767    4.51017455804717    6.17268892641877
H         3.45532787292296    5.94751589712608    6.64412837793986
H         5.14983575914847    6.08726364087334    6.16128138985864
C         7.37164681095007    7.00471587817563    1.20632726570257
H         6.61493030009184    7.69818351519308    0.81232810595777
C         8.20400194382202    6.49193884215203    0.03504160712887
H         8.57706985444186    7.33813598239482   -0.53707302405864
H         7.60363944420250    5.86957108688614   -0.62488589587168
H         9.06012865918555    5.91750729577520    0.38235634576274
C         8.25719712300858    7.78341549010314    2.18854763422451
H         7.65125325513863    8.19424265355634    2.99910608610023
H         8.74483833424028    8.60834140635565    1.67508787974007
H         9.01707461688488    7.12800776353664    2.61184561719431
O         5.22445622219396    7.60130893017725    2.86549670410225
Si        1.89038404658486   11.08522978446960    3.19105052219736
C         1.89546354067324   12.81054586825477    2.38756760437108
H         1.04158925626739   12.93052910788813    1.72927772583854
H         2.79381371746092   12.97881452337042    1.80209839192033
H         1.84028148551160   13.58692539943558    3.14319354184775
C         0.30898448236847   10.78763348416464    4.21147740629854
H         0.21844813400521   11.52788589150199    4.99910885516932
H         0.29740419786669    9.80726652762264    4.67590183817216
H        -0.57136914152377   10.86609284860143    3.58266980136458
Cl        5.98432030933175   10.09622805287334    1.34292002074429

