57
CSD_code = EZODUT | q = 0 | S = 0 | Stoichiometry = C28H21ClIrN2O3P | MND = 6
Ir        6.12411784035394    1.98740935904181   11.61418230089520
Cl        4.39232261846617    1.45750211572849   10.14296547470850
P         7.89238528073990    2.59920985462652   12.85784533009656
O         9.18395137198401    1.86922524746187   12.23701247412322
O         8.15145185176940    4.15167112501949   12.60743033505277
O         8.21523727152132    2.60935660973549   14.42763127914630
N         4.76118244161698    2.60325856074554   13.13580789353519
N         5.60109453869565    0.14341375216804   12.55558727435162
C         7.65516374400074    1.27708340201829   10.43656828145336
C         7.52107764686122    0.69442542426755    9.17910851495950
H         6.54495262358161    0.66258203056847    8.71946450316248
C         8.60758375035183    0.15770511012323    8.50412407964706
H         8.46328278301791   -0.28674735585620    7.53047352136037
C         9.86886929069427    0.19352148975685    9.06877899806298
H        10.71811067676692   -0.22125643383204    8.54716443172367
C        10.04387368296000    0.77392382258802   10.31407364391626
H        11.01624778099619    0.82793157813775   10.77936344847321
C         8.95018051892884    1.30404878783987   10.97412240232091
C         6.52317142506908    3.84855872641258   10.82426627911221
C         5.88820026898371    4.42305458813495    9.72685954208601
H         5.16357025735352    3.84203556953326    9.17767695392537
C         6.16319048007704    5.72139159432788    9.32330797743013
H         5.64834852045911    6.13362356941329    8.46820282509086
C         7.09192287626176    6.48479777649720   10.00585204569787
H         7.31093698449503    7.49489658407057    9.69418613778193
C         7.75209672489096    5.94394536831347   11.09687520438822
H         8.48971246140287    6.50778838804718   11.64703497421572
C         7.46387716457771    4.64899266827501   11.48708952903670
C         7.78976807973396    0.26819757678814   14.82108794115918
H         8.26812902673384    0.02205212401020   13.88473515375136
C         7.25615688892083   -0.71831883618025   15.63196071733522
H         7.30764568606334   -1.75024780766607   15.31834321605083
C         6.65868954924439   -0.38465969015661   16.83525602851665
H         6.24066001246057   -1.15638733808882   17.46349108288520
C         6.60674688711790    0.94087416866837   17.23474162758789
H         6.14845186866219    1.20565141111033   18.17565540871360
C         7.13409493790318    1.93434257615760   16.42969353579714
H         7.09310189686305    2.97273736463983   16.71962129015441
C         7.72435713632830    1.59539594524295   15.21935188622603
C         4.49153912159741    3.86472960208343   13.45330973481099
H         4.75290882795198    4.60469518561372   12.70901915926271
C         3.91078614290225    4.22967174103690   14.65242052841455
H         3.71027345641628    5.26767932849395   14.86307814748038
C         3.60093631488187    3.23516780653316   15.57158911250511
H         3.16508069359790    3.48197978130835   16.52770254956549
C         3.85808181480677    1.91975620061845   15.23702521252912
H         3.63941871387373    1.12760914305417   15.93440664452852
C         4.42733457453388    1.62769463441078   13.99857220000328
C         4.72409294278250    0.26126921864090   13.56457969872683
C         4.12514172285834   -0.86034139556939   14.13648084967523
H         3.39693921755236   -0.74757509278832   14.92295130434693
C         4.44826755938109   -2.11653818123913   13.66107992457263
H         3.98849388409330   -2.99637282169203   14.08510458692154
C         5.36196816371292   -2.22270532855827   12.62167343175534
H         5.63797584632488   -3.18203065912500   12.21489003385016
C         5.90579666592290   -1.06393304878841   12.09936646271098
H         6.60924948989758   -1.09464292174214   11.27835687440200

