111
CSD_code = EZOKIN | q = 0 | S = 0 | Stoichiometry = C54H51ClN2P2Ru | MND = 6
Ru       -3.63055574212320   -5.09808793050636   -2.43063281624394
N        -3.10454950147101   -5.65186772353076   -0.56976289672692
C        -1.87022057626460   -5.76322303327690   -0.07982223128105
H        -1.06426117705255   -5.55465039532339   -0.77094815671464
C        -1.60410210469090   -6.14465637547471    1.21423721691939
H        -0.58231904530684   -6.22291093617644    1.55052428047646
C        -2.66037602442214   -6.43426096162271    2.08137470009877
C        -3.94108166421740   -6.32184393692549    1.57232323975534
H        -4.78811429412593   -6.53789159702966    2.20483643608877
C        -4.14392746040505   -5.93843938540937    0.24618571727504
C        -2.40129690400575   -6.85919679141837    3.49064929077942
H        -1.81449542573285   -7.77714213687145    3.50121859303418
H        -3.33150842914727   -7.03213219176474    4.02631764144161
H        -1.82996719247745   -6.09521367920255    4.01659063213791
C        -5.45052828124760   -5.80178411928286   -0.37617256876582
C        -6.65566771639981   -6.08960149325484    0.26426483692532
H        -6.64661047529171   -6.46313626810830    1.27636260887778
C        -7.86232561092400   -5.89834413224488   -0.38178331141983
C        -7.80820853054309   -5.39959436478216   -1.68700870952981
H        -8.71652983335559   -5.21258046895109   -2.23757801020513
C        -6.59180246479481   -5.14289954278635   -2.26988858285684
H        -6.52145237667259   -4.73781717809442   -3.27068013494518
C        -9.17188659395539   -6.19596751215145    0.27369584894122
H        -9.81714597145059   -5.31940679318004    0.23744993759272
H        -9.03384714477902   -6.48886597714511    1.31150607612366
H        -9.68025209361418   -7.00386330012113   -0.25231029910884
N        -5.42298595394600   -5.35000819715936   -1.65423942231258
C        -4.34142136123006   -4.44470542105280   -4.21170554801557
C        -4.81652020640000   -4.00573212488663   -5.23277620292445
C        -5.36463674685610   -3.49978488030235   -6.49377532553364
C        -4.27716632057705   -3.56906389272828   -7.57255534559765
H        -3.41067392840434   -2.98615569497025   -7.26710295551585
H        -4.65044359298018   -3.17449764040318   -8.51704290552909
H        -3.96326973036833   -4.60005325571425   -7.72502223902812
C        -6.56412795021550   -4.36147397187314   -6.91110880535248
H        -7.33911123749272   -4.33366040314543   -6.14581188146388
H        -6.25681062227506   -5.39669787808764   -7.05137651659318
H        -6.98766749993904   -3.99550453989459   -7.84559990429061
C        -5.81161234773468   -2.04453064205253   -6.30388580160293
H        -4.97845800270419   -1.43494336118062   -5.95765021036999
H        -6.61235668952727   -1.98500123219980   -5.56786578915123
H        -6.17773616061857   -1.63364529841655   -7.24410825008709
Cl       -1.33760567227260   -5.15846314479674   -3.20022275723731
P        -3.50843290641674   -7.25220597746128   -3.22568482747185
C        -2.65336226374805   -8.27425489435801   -1.98825308205654
C        -3.34949859421556   -8.70887729993457   -0.86061759922622
H        -4.42089994280626   -8.55483201726329   -0.79960926495024
C        -2.67892330832822   -9.32643669192168    0.17780712963574
H        -3.22757049632332   -9.66646031842490    1.04519389001348
C        -1.30546467629983   -9.49876801512780    0.11150747872503
H        -0.78230482792997   -9.97979751680121    0.92544990767039
C        -0.60404713674686   -9.04260717155134   -0.99229416506523
H         0.46889316144627   -9.16038399627085   -1.03697897227709
C        -1.27037135021337   -8.42598532115307   -2.03583412729506
H        -0.72325340030338   -8.04436022297763   -2.88687244325364
C        -5.05360335681565   -8.16738243106948   -3.57448971200275
C        -5.31831443009014   -9.48105467134363   -3.20827232418302
H        -4.59412107951332  -10.05035532265102   -2.64263863338342
C        -6.51620008225678  -10.07100728528830   -3.57321495711495
H        -6.71921709622012  -11.09182685762592   -3.28141179199843
C        -7.44919911129646   -9.36447451422572   -4.31320237367573
H        -8.38294534464048   -9.83176035878198   -4.59095418003639
C        -7.17538671038076   -8.06481031992928   -4.70839102173405
H        -7.89157219357724   -7.51682289764502   -5.30351436073497
C        -5.98193604215233   -7.47145903010420   -4.34468208038302
H        -5.73788816472862   -6.46414757867287   -4.65947487425616
C        -2.66454237565338   -7.67794292972223   -4.78384373445316
C        -2.29029797927062   -8.99686347652206   -5.02541682955192
H        -2.45904264275584   -9.75360572926614   -4.27052137221726
C        -1.69544705068503   -9.33521486857449   -6.22581770114473
H        -1.39647967247293  -10.35774702994023   -6.40815963257617
C        -1.48228243129635   -8.36584547089297   -7.19338726248326
H        -1.01238988455765   -8.63361611613886   -8.12886734357787
C        -1.87287122864634   -7.05802924978201   -6.96113988419405
H        -1.70870964080304   -6.30301559450921   -7.71626692877306
C        -2.46814015256358   -6.71115447860357   -5.76100732125682
H        -2.77595840410681   -5.69205199047485   -5.56495733324688
P        -3.59532700530292   -2.85963563666079   -1.91749810884314
C        -2.46024347242541   -2.20908833276338   -0.63809231015688
C        -2.81009178137810   -1.29241881525541    0.34672336755275
H        -3.82538003023564   -0.92862389077827    0.42157780542166
C        -1.85179133743933   -0.83756280205211    1.23538864799866
H        -2.12831147620252   -0.12780697809992    2.00246689827972
C        -0.54301577740141   -1.28142541202453    1.14295932975861
H         0.19779366993322   -0.92392339960934    1.84368859712082
C        -0.18440782827093   -2.17153842916431    0.14365173057439
H         0.83924065520785   -2.50545884479825    0.05617085232055
C        -1.13679036224761   -2.62970372530513   -0.74709038498780
H        -0.86573729004209   -3.30907683728158   -1.54619496721749
C        -5.24802615491848   -2.40650283414561   -1.31342861034577
C        -5.61192287434688   -2.72769975882120   -0.00645886071980
H        -4.86443855177580   -3.11105333663729    0.67853738233353
C        -6.91759540309473   -2.56161312945682    0.41530087094879
H        -7.19038049619997   -2.80732675705836    1.43198826966577
C        -7.87671408524613   -2.08860160842159   -0.46570697923326
H        -8.89605538378760   -1.95617189149145   -0.13323380988324
C        -7.52878486993000   -1.79721678803537   -1.77451418492986
H        -8.28010913314750   -1.44336975368320   -2.46581057369848
C        -6.22446153107161   -1.96646869316571   -2.20189588450324
H        -5.94796089604528   -1.76724727594105   -3.22744163566382
C        -3.22200937912167   -1.60499222931774   -3.18360560904023
C        -3.64810569660686   -0.28879158382032   -3.03402838138126
H        -4.24881095333979   -0.00816920443773   -2.17924948710832
C        -3.30982158410544    0.65662874940415   -3.98408481854470
H        -3.65253521612020    1.67575667182682   -3.87435672600020
C        -2.52967512701870    0.30022738141444   -5.07302146103117
H        -2.27025541675565    1.04220432068658   -5.81453088860386
C        -2.07844246038337   -1.00256771286889   -5.20528532418353
H        -1.45747287629618   -1.27602288195341   -6.04597716071921
C        -2.42079302523595   -1.95647329281624   -4.26311615490348
H        -2.07794937508843   -2.97770783927886   -4.35851317970512

