62
CSD_code = EZOQAN | q = 0 | S = 0 | Stoichiometry = C26H30ClNiPS3 | MND = 5
Ni       11.08087735532156    4.55044246021824    2.57322112886538
Cl       10.34161980630777    2.79349893627294    1.75347729608483
P        11.95907469410695    6.24035135621618    3.42369009261282
S        13.28245102592300    3.79961991808007    2.73221336234195
S         9.59374738235719    6.06070280172042    1.41801091910410
S        10.31562600632307    4.08624400818284    5.01539782281858
C        13.66700890016244    6.48675866842453    2.89608434849425
C        14.25595036299731    5.23575307081550    2.63867103160393
C        15.60809925295541    5.19144243848957    2.30435349232182
H        16.07540734748122    4.23577604070949    2.12512927831561
C        16.32093633186757    6.36752667327604    2.18247206391259
H        17.36558588555392    6.32787965079057    1.91014511958958
C        15.71394540765877    7.60198160164115    2.38141054068555
H        16.28146527554269    8.51190691776744    2.25643497209276
C        14.37867807539141    7.66476227962271    2.74288911611796
H        13.89412710882497    8.62067845480552    2.89174709665548
C        11.04765477749214    7.77587812423741    3.05251305123294
C        10.03404797655450    7.66414649586887    2.09854857050325
C         9.26975917588710    8.77185878858095    1.76426904199400
H         8.45986993863522    8.67017121485456    1.05920678687317
C         9.53566527859094    9.99580276352515    2.35354105587149
H         8.94414537518369   10.85794280660935    2.08523639089500
C        10.53684429834152   10.10943062141809    3.30500032088202
H        10.72718313898340   11.06112395179666    3.77834838909628
C        11.28221631533719    9.00080552705133    3.66461733225418
H        12.03526203350782    9.08011538208616    4.43444733470822
C        12.09326541982363    6.18880295548450    5.24071519597145
C        11.32852818181014    5.24195960366932    5.92537581933350
C        11.44647397976196    5.12222322458058    7.30157215126478
H        10.89121889024249    4.35557193999150    7.81859271046892
C        12.29711598785443    5.96296517913198    7.99829083399072
H        12.38075634755289    5.87079465679952    9.07077161856081
C        13.06832429292270    6.89396023472519    7.32044102789157
H        13.75391825228874    7.52731110807320    7.86351111189041
C        12.98173441073141    6.99464520969416    5.94379550853960
H        13.62297194824031    7.68010355743075    5.40741102253762
C        10.36421808735491    6.04914191590811   -0.29094102688860
C        11.85643094618542    5.81752451624838   -0.13540677509426
H        12.03115395429332    4.88320517314568    0.42059571155263
H        12.33517808555513    6.64866165127027    0.38744004812423
H        12.32628350517414    5.71382582056502   -1.11207484105234
C        10.06818289877275    7.35667853095837   -1.00503727884494
H         8.99657883419318    7.53358941998656   -1.06486641337937
H        10.45842267553389    7.29836802626741   -2.01979870138615
H        10.54145937761379    8.20215937220228   -0.50872329523606
C         9.69186338658621    4.87369576546888   -0.98546174471264
H         8.62571667264642    5.05504446233061   -1.10400214935971
H         9.82578058625544    3.96332058730336   -0.40088788633066
H        10.13372138922253    4.72464163766057   -1.96826981180914
C         8.56788966158056    4.68937377599517    5.29427037937108
C         8.49506540920761    6.18563168077424    5.04586609527673
H         8.78918715169114    6.41376192205612    4.02328638476464
H         9.14209307892273    6.73513013027063    5.72921787127737
H         7.47305631327191    6.53300842325898    5.18843930979815
C         7.75848764328525    3.91676899019584    4.26199558978050
H         8.16945344675688    4.06891889827063    3.26333964508102
H         6.72263145055088    4.24944421461773    4.26724834736805
H         7.78819957380055    2.85099203411596    4.47561244678701
C         8.13490357436714    4.34205497847641    6.71043250597112
H         8.32561542189453    3.29270945209160    6.92128401627810
H         7.06731355989156    4.52632363940845    6.81895885157822
H         8.66045707687602    4.95278635850835    7.44102976471651

