27
CSD_code = EZOQAL | q = 0 | S = 0 | Stoichiometry = C12H10FeO4 | MND = 7
Fe        7.09699512936987    3.22534868801265    5.58782678134391
O         9.15856294145591    2.82842416160403    8.08284634242231
O         6.59223453250141    5.80099362584324    4.34220788138804
O         5.42091181158257    1.60626776401410    3.81781491693142
O         9.63431512095339    3.10407883195248    4.15869131407638
C         5.64485537962017    3.37098141856941    7.10091306709136
H         4.88118974062199    4.14774467020849    7.10394653740642
C         6.90814629657348    3.75803551462414    7.67511633800323
H         7.07260337670626    4.72883005345019    8.12657661583010
C         7.89122726393974    2.75268120211638    7.62942606490719
C         7.47325129212111    1.57879665786643    6.90501426638067
H         8.26607182892090    0.84524879087800    6.76351693010716
C         6.16934254192746    0.93680727344811    7.38752464302922
H         5.86391392108217    0.17029794426815    6.66803979322918
C         5.08297296555495    2.02108126215361    7.51690618577349
H         4.21940676324661    1.77636505278262    6.89738064597615
H         4.73714448743529    2.08459118549503    8.55441666395622
C         6.42512543755993    0.28625310977467    8.66196176921642
C         6.65641553326475   -0.22256529154110    9.72025893881568
H         6.85062984439133   -0.68140689308411   10.64332346080296
C         9.66891167090833    4.10343668452509    8.41141385246493
H         9.56158126336568    4.79121271148828    7.56487332671854
H        10.72419465344694    3.95613506997785    8.63249828629534
H         9.16902006895069    4.52208387923018    9.28976449692034
C         6.79195466148025    4.79719436927808    4.85853284565163
C         6.06761155108997    2.23259574591323    4.52222180801977
C         8.65640992192882    3.15688651715080    4.75358622724167

