47
CSD_code = EZOSOD | q = 0 | S = 0 | Stoichiometry = C18H22N4O2Pt | MND = 4
Pt        6.18798464739174    0.00004490025974    8.45329229123985
O         7.44571381168208   -0.17114931312888   10.03983479668042
N         5.48833950808196    1.74565122946742    9.22926635282869
N         4.53897556751414    2.60239798224893    8.60338320871741
C         6.75512913369344    1.72775751868203   11.33179443755769
C         7.52710470801178    0.55510120266394   11.09775405229644
C         8.45068582385676    0.16860022887214   12.10336026585219
C         8.59183800405681    0.88482647064343   13.25960199223992
C         7.82570926599008    2.03393501001544   13.48623279526327
C         6.93041190106313    2.44052533825900   12.53492088723999
C         5.82573615692976    2.22573219057656   10.38603011351773
C         5.03279644899778    3.12115485361111    7.34306361457047
C         3.22605343751160    1.99046522151443    8.53255384348663
H         9.03909106660450   -0.71895748868594   11.92322108949520
H         9.30163333382967    0.56117951552087   14.00719727523484
H         7.94566622482075    2.59072302396719   14.40262693095446
H         6.33457895388615    3.32846410207547   12.69425802667969
H         5.33038478470085    3.15582067467231   10.66787105423818
H         5.97758557870763    3.63095014244508    7.53244902618788
H         5.18675582012411    2.34744507761063    6.58532270792418
H         4.31001255532177    3.84758158569742    6.97574858065017
H         2.91967300016929    1.72263357131089    9.54400595486783
H         2.53213423860573    2.73208859558866    8.14080146760678
H         3.20090258809599    1.09773200966550    7.90094373321366
O         4.93061380264855    0.17146705968824    6.86650210236699
N         6.88716416046376   -1.74588984692933    7.67759199332642
N         7.83548478753709   -2.60331797593073    8.30412147636203
C         5.62135412576111   -1.72734326364960    5.57448789649521
C         4.84966687809624   -0.55445841362974    5.80832566311034
C         3.92679345179711   -0.16741703371566    4.80228520679949
C         3.78593224253406   -0.88343447952313    3.64587734576165
C         4.55168439687235   -2.03284128958041    3.41949757776763
C         5.44637028029254   -2.43989467679591    4.37119159868046
C         6.54999777430372   -2.22585059114763    6.52071203133213
C         7.34060249430364   -3.12112202495871    9.56442103387052
C         9.14897601986036   -1.99263229657160    8.37533359685544
H         3.33868255003182    0.72036996219010    4.98223821616340
H         3.07667114897676   -0.55938220894574    2.89795692171283
H         4.43190173605381   -2.58950003811851    2.50300216216505
H         6.04192893513573   -3.32804359293581    4.21202914509160
H         7.04485727732994   -3.15629460415163    6.23918390977843
H         6.39549524205046   -3.63023675421686    9.37476054341411
H         7.18686847614368   -2.34692944101912   10.32172172661567
H         8.06259180703437   -3.84796205243550    9.93249004752160
H         9.45602003344586   -1.72528992255496    7.36395156215612
H         9.84199055751453   -2.73488448263421    8.76749278228869
H         9.17475526216567   -1.09981567598718    9.00679096182074

