41
CSD_code = EZOSIX | q = 0 | S = 0 | Stoichiometry = C16H18N4O2Pt | MND = 4
Pt       -0.00000619835210    0.00003648108129    9.10101215401350
O        -0.25860413561336    1.00225335311317    7.34876439145413
N         1.90498875847965    0.57941307837990    9.19910451546159
N         2.51874735257463    0.34495783323410   10.39374992246418
C         2.05445336050214    1.56157935625160    6.96054645671808
C         0.68307690484142    1.50348000429127    6.60015708215808
C         0.30849222999423    2.02831547035708    5.34629693215014
C         1.22999579602832    2.56504579205932    4.48214495940364
C         2.57692854341252    2.60937346625026    4.83188574082741
C         2.96937687174164    2.11665932580989    6.05238478252993
C         2.56586811571395    1.11618464114752    8.22322191007558
C         3.94609903602153    0.14326921977487   10.47626898629373
H         1.95652237851504   -0.30146144707152   10.94644373053855
H        -0.73824343193547    1.98815000413750    5.08192836047862
H         0.90739538424312    2.95206153539050    3.52649651844945
H         3.30284908368270    3.02951642902750    4.15283293255306
H         4.01316852947269    2.15490133262584    6.33321119065250
H         3.62688694905093    1.30605128097455    8.35977740451021
H         4.31586148681818   -0.55042350487192    9.71052949722516
H         4.16649626904654   -0.26668223919364   11.45798945493875
H         4.47672395675916    1.09339387647672   10.37898087362014
O         0.25858657371221   -1.00213959225534   10.85327567032360
N        -1.90503827691531   -0.57923398118946    9.00295594480875
N        -2.51885382737736   -0.34465204930093    7.80836143706649
C        -2.05443744488466   -1.56166106766529   11.24141250433651
C        -0.68305953512546   -1.50355316095401   11.60179859578785
C        -0.30844102066717   -2.02852611053479   12.85559174625364
C        -1.22990603631340   -2.56543949387457   13.71966906496508
C        -2.57683622223881   -2.60980611733348   13.36992339574904
C        -2.96932252093639   -2.11692663220002   12.14950323270412
C        -2.56589067054410   -1.11608913541650    9.97881386510459
C        -3.94619164928230   -0.14281255446744    7.72595882330278
H        -1.95660448239178    0.30174696290688    7.25566818900504
H         0.73829434084391   -1.98833770132238   13.11995866963989
H        -0.90727114502547   -2.95261169418298   14.67524365405807
H        -3.30272282399146   -3.03011512942956   14.04890985257381
H        -4.01311415616758   -2.15519007396473   11.86868006651875
H        -3.62691378614156   -1.30593502400260    9.84226561974190
H        -4.31582588452758    0.55084305866329    8.49179324397646
H        -4.16662214157967    0.26725633557848    6.74429455636564
H        -4.47690653144320   -1.09289212829993    7.82319407120070

