75
CSD_code = EZOTIY | q = 0 | S = 0 | Stoichiometry = C28H40N4O2Pt | MND = 4
Pt        5.65227764437221   17.11250996595447   -1.04786993049286
O         4.69116429889478   17.20027960016182    0.75406870550256
O         6.60452473392691   17.22144171832036   -2.85762378529437
N         3.93482913603655   17.58711144074405   -1.99874513531552
N         7.39030862211554   16.79692887187606   -0.07309734467038
N         8.55811876141394   16.31227168322917   -0.69527945909792
N         2.65906063820733   17.25183528173263   -1.51898755798198
C         5.02088388989221   18.74096010354875   -3.85130314409251
C         2.61212186147823   15.87469915624036   -1.05649547072411
C         8.28545592576485   15.09983665036557   -1.44894477898282
C         8.13724916254249   12.56433983140080   -1.14694025478762
C         5.23231135673546   17.52885899507739    1.87645919355223
C         6.63653739330772   17.58731772832719    2.11524396842043
C         9.30253633163282   17.34147336559066   -1.39643097953428
C         6.28527148743608   18.08680076610358   -3.76144270050818
C         6.24544181572441   18.30533379477628    4.39994617987761
C         7.24053963269419   18.38877244088659   -4.76211927779960
C         7.10388200176562   17.98334803764980    3.38248277217880
C         2.82743139942834   14.94197183473084   -2.24796556522533
C         6.99475949341071   19.31637949795011   -5.73985598468363
C         2.10446939297641   18.22401034307006   -0.59500035108246
C         5.76968553580434   19.98384428460839   -5.79551567490573
C         7.59264784896188   17.17260186950388    1.14986779586770
C         4.80213619708077   19.68200767566268   -4.87236542424681
C         2.64737998830125   13.47312000807234   -1.88010249038105
C         4.86761301951812   18.21898477060586    4.18254051099402
C         3.92237947953928   18.37931063873120   -3.02096919654939
C         8.21426740983962   13.92887052980743   -0.46618986188902
C         4.37656370429225   17.83473746489835    2.96403981167129
C         2.79360648830140   12.58106233388001   -3.11201318591584
C         2.83620669880557   11.08621502613345   -2.78762154435447
C         4.14132366899803   10.64480206598338   -2.12265483271146
C         5.33874480701371   10.65968409242140   -3.07847955631413
C         6.66596792683271   10.89816590037810   -2.35651429348552
C         6.83452483528908   12.35155301638417   -1.91395439657022
H         1.61893769766492   15.71277794502722   -0.63218142753410
H         3.36472972973146   15.67378515919839   -0.27929978711958
H         9.10533844364871   14.94492799998029   -2.15173925615985
H         7.34571918537891   15.18570729027714   -2.01441336510240
H         8.98616319140581   12.44511546007328   -1.82431410309808
H         8.22101878093105   11.79219830474356   -0.37781009064985
H        10.27278835709264   16.92969546812469   -1.66978409674645
H         8.78997551458207   17.69786524076672   -2.29469304140150
H         9.45875285921866   18.18201402447105   -0.72025039078633
H         6.62398110144978   18.61247776982794    5.36251317521816
H         8.18580267561117   17.86751460060997   -4.72027566806795
H         8.17250523173154   18.02763864096174    3.54167753970132
H         2.12228333611726   15.21426085113304   -3.03694151033982
H         3.84077395670182   15.09361432392824   -2.63450865618963
H         7.75705875286455   19.53423765447105   -6.47404408658490
H         2.18926464578747   19.21857554898857   -1.03126621004821
H         1.04964371993150   17.99398173222085   -0.45230482038874
H         2.61474818073682   18.21567268981806    0.37321845443452
H         5.58505893921049   20.71645308966243   -6.56579628500208
H         8.62182343745669   17.11455786115381    1.50643218582510
H         3.83898022281994   20.17144920150909   -4.91893922111057
H         1.66099062178195   13.32092461024128   -1.43511284877912
H         3.39247833281855   13.20599873938618   -1.13001178629624
H         4.18367861695988   18.45873271175648    4.98400554861637
H         2.94992255236804   18.75942448340179   -3.33711565318881
H         7.34409288257274   14.06287936458162    0.18108013808624
H         9.10585981862883   13.96438215954860    0.16434503873969
H         3.31208330381234   17.76510065627837    2.79368295546001
H         1.95283391241386   12.77269341931574   -3.78299389883820
H         3.70269653807088   12.86551332075052   -3.64390879668591
H         2.70239659872203   10.51761265269227   -3.71101787787988
H         1.99922145619075   10.84530547038199   -2.12790908178838
H         4.34133666081699   11.29592910650483   -1.27265962064757
H         4.01462305441011    9.63484776545691   -1.72642041869485
H         5.21053423954533   11.44287788859401   -3.82685716965921
H         5.38111986460934    9.70818490627553   -3.61305971751131
H         6.72707266526224   10.24020714518335   -1.48619187261619
H         7.49050173664696   10.63717390078358   -3.02430796603795
H         6.00154177786183   12.64265913291769   -1.27239290925999
H         6.81334481809461   12.99649092421019   -2.79380016233750

