49
CSD_code = EZOTOE | q = 0 | S = 0 | Stoichiometry = C18H22N4O4Pt | MND = 4
Pt        4.54510495575468    7.46087881408129   15.80218308843388
O         3.26250215196760    7.50273497718969   14.22045224215297
O         1.36629289314733    6.26341658422472   10.05572662279948
N         5.95847497448907    6.60492410508824   14.68390740597662
N         7.20258795620900    6.55557019113446   15.25171797723848
C         4.58092530561832    6.16713074667812   12.71004630888343
C         3.41140134121548    6.87475095356184   13.08962130465851
C         2.32824546759109    6.91477473611902   12.18941865537242
C         2.37502792596187    6.27521780971039   10.96901593353545
C         3.53080618706859    5.56818941907690   10.60238894252172
C         4.59620174323025    5.52716660952966   11.45936589648240
C         5.76299329153699    6.09172261852049   13.51032837855442
C         8.12235675953838    5.49034270176972   14.92460272812092
C         0.17661296609412    6.94872062520040   10.35884642613432
H         7.12196082025822    6.75731668489021   16.24729792503124
H         1.45755061271652    7.46625472304852   12.50801505804876
H         3.55200256875279    5.07332325985307    9.64576895237146
H         5.48571322365535    4.98601237774338   11.16927911830371
H         6.58658398152397    5.56938394756715   13.03150578107011
H         7.63952665389161    4.50487482864204   14.92350857779804
H         8.91319985512328    5.49376821755836   15.66967154670917
H         8.57865717867625    5.66155463969061   13.94705659257733
H        -0.47533458263440    6.80433902589930    9.49870532026609
H         0.35539226026149    8.01916475245164   10.50225214869869
H        -0.30586903031237    6.53882104802435   11.25201883912801
O         5.82785492012348    7.41942152562381   17.38376170421249
O         7.72409397010590    8.65885875975735   21.54844548761332
N         3.13189766398851    8.31728764248626   16.92026289431652
N         1.88776612300519    8.36659630567005   16.35248922982959
C         4.50944433370248    8.75507049632904   18.89413753447764
C         5.67897298319633    8.04745198708353   18.51457322325030
C         6.76213798150105    8.00746094576664   19.41477118337023
C         6.71535586444213    8.64703776930060   20.63516182637101
C         5.55956354288776    9.35404402569042   21.00178777778882
C         4.49416258066069    9.39503935396565   20.14481575110996
C         3.32738132171996    8.83047780264097   18.09384760598880
C         0.96797658798094    9.43179849271908   16.67961137636723
C         8.91377720474430    7.97356018277204   21.24531979387677
H         1.96837204261112    8.16482344974857   15.35691706972967
H         7.63283485582817    7.45598142463694   19.09617926265638
H         5.53836410525826    9.84891862245188   21.95840278361045
H         3.60464671748399    9.93618756704763   20.43490001234768
H         2.50378364324508    9.35279641414451   18.57268098983446
H         1.45078497359683   10.41727613580880   16.68069118708936
H         0.17712256342153    9.42834687299777   15.93455928249406
H         0.51170015320953    9.26058748457772   17.65716202953798
H         9.56572503252661    8.11794758948821   22.10545934077333
H         8.73500698195826    6.90311284648276   21.10191517190535
H         9.39625639146659    8.38346190555623   20.35214571058091

