41
CSD_code = EZOWOF | q = 0 | S = 0 | Stoichiometry = C18H17MoNO4 | MND = 9
Mo        4.27881957991403    3.08384351702772    2.98369737924466
O         1.40969814766054    3.50579217235183    4.01670868087053
O         3.00064322153259    0.85357041574793    1.29194943807336
O         4.61107195012851    0.98593961500096    5.20173614408283
O         9.64540540379851    8.28065153461841    0.70651120423131
N         9.27643209230241    3.60798367822478    1.86868829024118
H         9.18793038213461    3.02301178397718    2.68452319700650
H        10.18268652129716    3.52659063660136    1.43195097781095
C         6.98951845252202    4.12813604491830    3.55477571788863
H         7.64676430802515    3.73176742561958    4.34148462384184
C         5.68837161253586    4.55540219112785    4.18955495452891
H         5.67975571743250    4.62875637398607    5.27355867760535
C         4.73127176143377    5.25649054958172    3.49672589531389
H         4.02179087014412    5.86741346536577    4.05522587440203
C         4.57200599119896    5.25950796818227    2.06909728628792
H         3.90656959802837    6.02154811952548    1.66760264932512
C         5.12367146814802    4.37349267665884    1.15933694008808
H         4.84353394119182    4.51042295792830    0.11634211852195
C         5.95466596123323    3.23744433678656    1.43850488660739
H         6.05901116722061    2.51379078998553    0.63072707448237
C         6.59528957067295    2.99585860696382    2.62969170333687
H         7.13960198139878    2.06106207386010    2.72345647978128
C         2.48427931330693    3.35829158778912    3.65499728406460
C         3.49765533596422    1.67008328198595    1.91922689529439
C         4.44789369521028    1.75354621776198    4.37035964851802
C         7.73041343018067    5.23607204954946    2.81410208094570
C         8.83586951094024    4.91776316277799    2.01604071598555
C         9.48182273365892    5.92608577423490    1.30042485072720
H        10.32103796107486    5.64576068969525    0.68153323871572
C         9.06810843192978    7.24427557313191    1.38078476133643
C         7.99892708510992    7.58177555511536    2.22182172256141
C         7.36253218012619    6.57154466207867    2.91688594872990
H         6.55044866638141    6.84935507781742    3.57331509329088
C        10.73707814428045    8.01186322601965   -0.13534494774271
H        11.58458787537162    7.59862233346395    0.42208000081598
H        11.02419265194911    8.97185091453035   -0.56200346112994
H        10.46504973375477    7.32511629983498   -0.94395451567490
C         7.57680299445361    9.01321539975356    2.34312545990276
H         6.74737004379624    9.11570876954263    3.03796220136651
H         7.27709220253325    9.40000103612018    1.37009243291805
H         8.40982831004081    9.62259145475668    2.69030039579596

