61
CSD_code = EZOZIE | q = 1 | S = 0 | Stoichiometry = C18H39AgN3(1+) | MND = 3
Ag        2.48268790406830    4.83626397435337    5.72210128235457
N         4.56534652734986    4.16395297545118    6.74345183830924
H         5.21552158763392    3.78698229114097    6.05657141321265
H         5.05911892394288    4.92430619747287    7.20704490196705
C         4.27468905620108    3.11630597957385    7.74116202879318
H         5.20598522548650    2.73369708678768    8.18261674208897
C         3.40273422390525    3.70886514001865    8.84409326784890
H         2.51098379092220    4.14340471456099    8.37076872875154
H         3.94161054700796    4.50882076670371    9.35589516668416
C         2.97937088127982    2.64022819222621    9.84720832387836
H         3.86478122898478    2.23955541200589   10.34402611341636
H         2.34403959579469    3.08774127646380   10.61259821038836
C         2.23665412476124    1.50895207898818    9.14415122553599
H         1.31519079106933    1.89540389708342    8.70090756037397
H         1.96328329845316    0.74078459804265    9.86736712672219
C         3.11050649092624    0.90233630082715    8.05189453101416
H         2.56768220118329    0.11134686345177    7.53295330112528
H         3.99831716426720    0.45527796614847    8.50255794655276
C         3.53805213178306    1.97171913655923    7.05211821855464
H         4.17347481755060    1.52916505635481    6.28213345306346
H         2.64399115824433    2.39675085995114    6.56471948597919
N         2.21300513801578    5.05083555452849    3.30247871327317
H         1.44585652936498    5.67628181650453    3.06642158842907
H         3.02712136709061    5.40136330593573    2.80248829191584
C         1.89455607174506    3.70137128073877    2.80572063282190
H         1.66110983379005    3.72341649387360    1.73135974724026
C         0.68092717830387    3.17842983155344    3.56958002091647
H        -0.18778773185178    3.80369575020271    3.35369712365317
H         0.89976235521659    3.26175091865068    4.64946356254770
C         0.37712904154406    1.72631697769183    3.21733573260983
H         0.10142016066759    1.66312465305559    2.16306633636680
H        -0.47321427850530    1.37749564517624    3.80459239863687
C         1.59217028248201    0.84282810567567    3.47698360966510
H         1.82963462070294    0.85070001010630    4.54335153793217
H         1.36734130456906   -0.18496434915562    3.19217971722393
C         2.79100740032356    1.34729467090867    2.68128107102849
H         2.57339115777986    1.27564026630444    1.61402881781216
H         3.66408823087042    0.72565563512139    2.88368918053678
C         3.10247389773063    2.79798013027524    3.03529817203856
H         3.38069307879199    2.87108542944461    4.09578502497212
H         3.94601866931395    3.15252928118539    2.43919050238267
N         0.47325875571941    5.77774779491223    6.72691024090466
H        -0.33145483468080    5.73680370415619    6.10527145498216
H         0.17277132496480    5.35234556129095    7.60135724660678
C         0.80123085749494    7.19283247127105    6.98064921355678
H        -0.05718994486626    7.71818060804189    7.42365147141921
C         1.98177651802601    7.26190216621664    7.94444988985973
H         2.80759242509335    6.67874564702395    7.50768094345961
H         1.71076395316663    6.80705732488059    8.89915213043382
C         2.43513301729293    8.70179064546904    8.16145339584107
H         3.28943565557531    8.71915048927437    8.83910666678412
H         1.62807494179144    9.26752159821931    8.63040427473440
C         2.80478300309941    9.35175275491463    6.83271252288893
H         3.10317751225809   10.38693752084728    6.99749285576531
H         3.65426118986911    8.82398017521092    6.39146032285075
C         1.62076885315217    9.30126587919775    5.87349087019906
H         1.89395418627570    9.74660818113929    4.91620238614370
H         0.79367710538190    9.88175996100199    6.28631973523618
C         1.16798985515370    7.86064979229898    5.65890540382195
H         0.31323304184438    7.83464431764690    4.97982523110355
H         1.98823660461122    7.28263123503726    5.20417109480245

