52
CSD_code = EZOZUO | q = 0 | S = 0 | Stoichiometry = C21H22FeO8 | MND = 7
Fe        3.08061508132340    2.06323221684961    9.50635381140222
C         4.08512599677579    3.92719182906725    9.11343438268034
H         5.04343140208033    4.00571770394242    8.60368529067291
C         4.19043378657526    3.71184508679009   10.52930808231269
C         2.95050790169114    3.45412176328990   11.14032864078940
H         2.84352389513814    3.22000643826536   12.19218233635067
C         1.81699442418003    3.55979797226710   10.25925528320598
H         0.86728475869609    3.35106441403063   10.74898294358299
C         1.72576788615871    4.78327428515428    9.35064773814803
C         3.09330283030843    4.98448249683502    8.66015548148150
H         2.98343356365057    4.91944193312551    7.57724418254456
H         3.50460225054715    5.96931835885501    8.89898256006854
C         0.62805780562697    4.64634982551907    8.30540525691331
C         0.49287518462354    5.65939393345985    7.35178419482372
H         1.17169441963219    6.49683884289604    7.38298979270798
C        -0.47382575043918    5.60742974619955    6.36725879932031
C        -1.35487109629432    4.50346113713583    6.31684766876456
C        -1.21744060849745    3.50275439583406    7.25919379719591
H        -1.86858838583534    2.64373905836060    7.24318146872334
C        -0.23864668588430    3.57373746292664    8.24347880228519
H        -0.16559270424415    2.75791547113433    8.94335579475680
C         5.52722201553599    2.98725665634066   12.34105374971958
H         5.01839323212640    3.52470411433799   13.14724634634747
H         6.59278357974908    2.93972275833829   12.55700555323299
H         5.11913044960604    1.97243072471064   12.26422824169846
C         4.48191489377230    1.00358003369448    9.30197370628597
C         2.16785484914420    0.71771209962559   10.17356310297622
C         2.43616567394626    2.05389470394237    7.83878814372504
C         0.18485210053481    7.67200931520975    5.38755790335701
H         0.09774388785712    8.26170507201338    6.30674885769504
H        -0.14430792737422    8.27538525686901    4.54304309528451
H         1.23130659075505    7.38468654636275    5.23889466278272
C        -3.16657050372339    3.44635254863831    5.20605797666443
H        -2.63460200203422    2.50593359088680    5.02774568599297
H        -3.79716048635622    3.67150843311427    4.34740325768394
H        -3.79407053290380    3.34415828212033    6.09806349307443
C         1.34882167593020    6.00376684589278   10.24246045166077
H         1.19682802800321    6.87522719268012    9.60525316835110
H         0.42367620755647    5.78048417076426   10.77448671828215
C         2.42093080192480    6.34981231703364   11.24274571378194
C         3.04693151547580    6.20129221229700   13.49733206256194
H         4.06014518991946    5.99087862983019   13.14769603166522
H         2.78461396772052    5.56829159749370   14.34194269511351
H         2.98913991208389    7.25337016241811   13.78400103433647
O         5.40965290861032    3.66105600940979   11.10604589236062
O         5.35629361390295    0.28378330787266    9.12459363553067
O         1.56012882895659   -0.17359661709046   10.56391845052798
O         2.09484943279287    1.99079722559207    6.75042421381209
O        -0.66429479682081    6.55312239829595    5.40572015225977
O        -2.27893323576044    4.53004296998410    5.31844294209214
O         2.10465466121283    5.92151078583328   12.47231814401484
O         3.43621951204484    6.94780628355089   10.99498860839719

