95
CSD_code = EZUROH | q = 0 | S = 0 | Stoichiometry = C40H52HfN2 | MND = 5
Hf        8.06581393590622    9.23313476697928    4.72967349389314
N         9.00282602605038    7.57543851517369    3.16260376145039
N         8.59846902543258    7.51325190432462    5.78512656545440
C         9.30357860315180    6.46107699478107    3.70828109922005
C         9.25632257739945    6.35168694635414    5.22492011167764
C        10.76431874816097    6.32005635082633    5.63490475319749
H        11.28320491968754    7.17681403536398    5.21118122886655
H        11.25502099522470    5.40729942582545    5.30597407804723
H        10.83798465150313    6.37345523040677    6.71502717021432
C         8.61516179250955    5.00325801468369    5.61383409642671
H         7.56012280984810    5.00523684996897    5.34959976450148
H         8.70647004578294    4.83973386573262    6.68303576343040
H         9.10808518027575    4.17723991448718    5.11112569526679
C         9.77035148259733    5.27595793399742    2.91583031749565
H        10.10260028519297    5.58482626196129    1.92602086916273
H         8.93534642057550    4.58619844790209    2.79597929344333
H        10.57389048665192    4.74187511520233    3.41421852394449
C         9.19043001164148    7.78762349907637    1.77271009566585
C         8.24267646089785    7.37114550123462    0.82911156999332
C         8.46436514587994    7.66597879735694   -0.51015966375338
H         7.73849939437397    7.35892252418613   -1.24701519563411
C         9.60154570407052    8.33436801917860   -0.91637605234674
H         9.76096495751734    8.54658730572033   -1.96274167726879
C        10.53796646000293    8.73009589494445    0.02086109626150
H        11.42642460075082    9.24641501746400   -0.30501383698259
C        10.34788339637429    8.47753828450757    1.37080675011785
C         7.00140594721323    6.60558204441119    1.22720991322366
H         7.01475414520746    6.47332645084692    2.31445564987925
C         6.97705612907828    5.22326447403426    0.56513984954773
H         7.90812631084175    4.68654182912968    0.73065404743817
H         6.82988105187827    5.31541323067754   -0.50807755462433
H         6.15829362357769    4.63124514313556    0.96872326146123
C         5.72931679683012    7.37170386584599    0.85600483821883
H         5.73698832102855    8.36801583199372    1.29001335162405
H         4.85388631607923    6.83995238441294    1.22348991614887
H         5.63817669247714    7.47138340543819   -0.22286136640038
C        11.37979070625954    8.90922837332466    2.39179479957357
H        10.87783888132919    9.00087931434115    3.36954890127911
C        12.48107181610438    7.84952245133440    2.50109268553270
H        12.07546319262964    6.89114842020810    2.81339467893565
H        13.22817463860316    8.16252632178962    3.22697791754557
H        12.97111967780769    7.71658851254976    1.53833317218180
C        12.00750474598281   10.26600390598960    2.06637557485233
H        12.54726112127399   10.63176481348509    2.93645164791020
H        11.24524320832344   10.99693308376464    1.81139837041811
H        12.70972494110518   10.18960663325075    1.23966464892821
C         7.98291999951688    7.35178339562559    7.09323279861357
H         7.31294955544326    6.48047174210764    7.13253879422859
H         7.34594585821041    8.23079687656547    7.25126363408921
C         8.93525621090127    7.26370082389978    8.30392772060152
H         8.35364673772256    7.36576676129534    9.21779871309931
H         9.67362848843037    8.06203202939176    8.27597926562422
H         9.45271036932778    6.30813289674505    8.34701393756833
C         8.51073833031401   10.74684447463861    3.10003902673095
H         9.11108499028926   11.54763535313639    3.54672138632405
H         9.03913750116088   10.36119521582251    2.22542609153200
C         8.42535595749324   10.71594702384784    6.40664436124509
H         7.76595146711745   11.58582084311511    6.49189290973902
H         8.39358899901528   10.15243411810687    7.34391646661288
C         5.83877306177235    9.03798862133247    4.50962899149762
H         5.39741975177821   10.01041665370451    4.75917489997800
H         5.65433402151584    8.81396777352909    3.45341143194358
C         7.20501048596616   11.26509310387894    2.67914158395842
C         6.61256858484957   10.85751042209777    1.47558926902005
H         7.16262258824565   10.18897082746315    0.82426863578514
C         5.36264348016028   11.30816610992272    1.09957159026351
H         4.93024645613750   10.97340887269602    0.16627831707780
C         4.66571197449181   12.19671776081920    1.90240342665679
H         3.68929678491329   12.55069991419815    1.60694278653710
C         5.24669425634823   12.64084215354369    3.08061760194074
H         4.72039543050210   13.35176771913250    3.70294612369263
C         6.49211571406257   12.18595396816050    3.46279790281583
H         6.94139972064729   12.55491636056559    4.37659466438588
C         9.80346746264703   11.11438888676459    6.09501358425828
C        10.82895740180483   10.15092975951873    6.10101858357944
H        10.58176956155468    9.13405073169738    6.39033045861167
C        12.13127617333956   10.48774219608268    5.79054002364115
H        12.90451764696131    9.73106260350453    5.81976204907614
C        12.45714135622318   11.79111894157121    5.44265500679433
H        13.47624811810092   12.05458716215376    5.20036246752309
C        11.46078351550552   12.75361534666870    5.42100967963573
H        11.70488222719393   13.77307955871833    5.15758048974660
C        10.15915447044503   12.42482597178166    5.74712650966014
H         9.39879921848417   13.19457324734143    5.74063813146602
C         5.31819363796308    7.98483538170325    5.37493287619250
C         5.26652770815546    6.64660884072174    4.95729948192967
H         5.59210609482963    6.39756366156034    3.95520596196555
C         4.79212500489078    5.65070854809576    5.78665985924754
H         4.76018716705709    4.62741729434246    5.43535374749052
C         4.34356532000424    5.95268080628523    7.06316614600140
H         3.96961087616170    5.17269148239056    7.70954981147794
C         4.36776800785731    7.27083220253548    7.49217506518783
H         4.00563835121297    7.51989106429840    8.47992461022026
C         4.84099883013787    8.26835752766098    6.66463534371039
H         4.84093269203141    9.29581106165611    7.00749380556556

