74
CSD_code = EZUYIH | q = 1 | S = 0 | Stoichiometry = C33H35NO3PPd(1+) | MND = 4
Pd        3.97346598980692    3.13942046832346    8.40916845124189
P         3.27994641429588    6.37696992733066   11.08709052024467
C         2.67212676319518    4.67882516133415   11.31450187308186
C         1.97339175166836    4.01376692268417   10.30635033280767
H         1.61505439778613    4.55110534989535    9.43531368688494
C         1.71340601634777    2.65367472303297   10.43967489985407
H         1.12565695519672    2.15282603740916    9.68010006436224
C         2.15192026868259    1.96294309769773   11.56125076149035
H         1.95377471318956    0.90637197258852   11.66194091929445
C         2.83029388265154    2.63378794134104   12.56796289317955
H         3.16421574437599    2.09984615835726   13.44403770451932
C         3.09468524705210    3.98552335709697   12.44584187672908
H         3.63371666957654    4.49697002414237   13.22911091942626
C         2.55842671764888    7.20634029131992    9.65852492061987
C         1.18711034172628    7.08153153024891    9.43516193444598
H         0.58414036971296    6.47084528813655   10.09345729301257
C         0.59928059121921    7.75295957390636    8.37914982661277
H        -0.46007196597568    7.64992156012348    8.20200461731544
C         1.36694024166292    8.56163354005952    7.55558474355486
H         0.90354420414011    9.09094676075489    6.73751049332107
C         2.72630476590277    8.69612113650282    7.78505332248091
H         3.32406252657222    9.32717723614519    7.14543356115012
C         3.32632002320518    8.01910196197952    8.83312598620368
H         4.38902933219434    8.12094236985474    8.99345083918855
C         2.77912934990200    7.35454206913038   12.54183314633784
C         3.43767167164808    7.19502371558448   13.76000778235298
H         4.27301864694064    6.51671407611637   13.85340344372403
C         3.03688210017578    7.91437287973760   14.87076950417452
H         3.55535731213065    7.78319943470029   15.80809167821292
C         1.97777511285953    8.80258278002749   14.78064552657766
H         1.66785277576538    9.36342176068042   15.64834021440132
C         1.32376725616446    8.97257974372577   13.57208740476683
H         0.50306134705435    9.66854871255829   13.49312318682445
C         1.71958178813579    8.25371980542550   12.45833296284044
H         1.20779825001096    8.40342163963238   11.51976112940297
C         5.11440576666137    6.34099401392461   11.10171786198023
H         5.49575538973786    7.22620739068371   10.58610625137169
H         5.53016018444703    6.32583549845549   12.10872474897765
C         5.34828105392640    5.06678919205466   10.30109905224982
C         6.34126295340588    4.20853016762996   10.68018124143337
H         7.06912389371731    4.52917745281882   11.40619287115031
C         6.48657071681049    2.86750596169828   10.21296972105738
O         4.44753029776859    4.95657432656109    9.39744770471400
O         5.67339589178064    2.22160477132042    9.54030439147820
O         7.60991014522989    2.28924729476952   10.64861545055333
C         7.83323655177080    0.93144116000687   10.26929821086710
H         7.81316280580817    0.85957778733215    9.17487291206512
H         7.02187774075837    0.31186956546645   10.67075963566734
C         9.17831444855191    0.49764323988174   10.81858427055271
H         9.37089427613700   -0.53422069629140   10.54082479476117
H         9.18554620076203    0.58190892470111   11.90147620468970
H         9.96687674663426    1.12720041881956   10.41639923539077
C         2.73769484007889    3.88600068897750    7.04684594987898
C         2.61104970511891    5.21583499136650    6.68013981775162
H         3.16940899973262    5.97609253277053    7.21016057580092
C         1.77946591581115    5.58174968043340    5.62966338266013
H         1.69033445418246    6.62280044674263    5.35595095517477
C         1.07636606159765    4.61856426946381    4.92910947800525
H         0.43113548179116    4.90406813788347    4.11258110971064
C         1.21866480129712    3.28117086212535    5.26087359057426
H         0.69147760593246    2.52271498817876    4.70034131559436
C         2.04907826543062    2.91623466980529    6.30906898414172
C         2.28252357915932    1.48695809078286    6.71968268314858
H         1.50536794518915    1.17537974844036    7.42667189369589
H         2.24956677612639    0.80044490642908    5.86248823135548
N         3.59321106504188    1.40953594972767    7.39440915899569
C         4.66708110501189    1.38000504507217    6.39228972416739
H         4.62127260949261    0.45306159298253    5.80559243105980
H         5.63924812566028    1.43203733623839    6.89275461084317
H         4.56538024304144    2.23285526063547    5.71462439265540
C         3.67882682656953    0.21756019787521    8.23318520810412
H         3.54860005779159   -0.69264849651490    7.63489135933900
H         2.90650550269470    0.24858729830081    9.00347890979809
H         4.65409739672221    0.18312632486021    8.71982325795000

