73
CSD_code = FABBAM | q = 0 | S = 0 | Stoichiometry = C26H38F6P2Pt | MND = 4
Pt       -0.00013741859013    0.00001922336811    0.00009569660838
P         1.81054435479622   -0.00000087711677   -1.38099833035020
F         4.69835967680823   -1.07531801162258    5.10648958146245
F         3.21056648552709    0.00003979450788    6.22635289071151
C         1.22248489449510   -0.00004419040341    1.66912413762223
C         1.68662654832418   -1.18840460479584    2.24438972155397
C         2.54777301815502   -1.20159617985774    3.32592347171663
C         2.98381606167803    0.00000267426387    3.86800547824885
C         3.89135103587053    0.00003217080901    5.05564153330809
C         3.47908705575211   -0.00000870090191   -0.58867887977534
C         4.68320842109974    0.00001447617294   -1.52080515590389
C         1.84141096889666   -1.44769529335380   -2.51101845702601
C         1.73655852398587   -2.71912469036435   -1.67593437718632
H         1.37202522556861   -2.14232391909551    1.83674892727333
H         2.88975400772075   -2.13562146090515    3.74851922956568
H         3.50650450618309   -0.87517065795282    0.06661071229167
H         4.69575517214346   -0.88308259643831   -2.15484009900144
H         5.59733129471581    0.00000556444943   -0.93032007636071
H         0.96838044425960   -1.35351587891708   -3.16236079727578
H         2.73687733728834   -1.44543084009148   -3.13578867329433
H         0.92960213331502   -2.60098947035132   -0.94756545755596
H         2.65989520414660   -2.90727250466107   -1.13215640836934
H         1.52204249510455   -3.58421513332042   -2.29978282200063
H         4.69575039821197    0.88313899174137   -2.15480148147733
H         3.50649268846332    0.87513031598745    0.06664047753756
C         1.84142162755238    1.44768240931268   -2.51103609280976
C         1.73659342307168    2.71913974606174   -1.67599398376134
H         0.92964322062179    2.60105876672733   -0.94761375085875
H         2.65993927681706    2.90730481433570   -1.13223674780857
H         1.52208794737765    3.58419938931838   -2.29989044283600
H         0.96839325573601    1.35350003151908   -3.16238106403502
H         2.73689462357368    1.44537547813609   -3.13579933036603
P        -1.81064819749198   -0.00000089979875    1.38106779402191
C        -3.47912571456283   -0.00000871753012    0.58863680842037
C        -4.68321077835872    0.00001448834096    1.52080166128469
H        -4.69574750598164   -0.88308211200602    2.15483859663554
H        -4.69574271246330    0.88313854837658    2.15479995900402
H        -5.59733676842098    0.00000558130485    0.93032312165038
H        -3.50654647741191   -0.87517552386437   -0.06664617845658
H        -3.50653463807845    0.87513515177185   -0.06667593988554
C        -1.84138641501063   -1.44771772971673    2.51104255229406
C        -1.73655516937198   -2.71913357249936    1.67593695381033
H        -0.92958427939340   -2.60100158571446    0.94758452604224
H        -2.65988577857917   -2.90725665869451    1.13213991428596
H        -1.52206679425736   -3.58423518020866    2.29977874919009
H        -0.96834867596416   -1.35353751385484    3.16237532394889
H        -2.73684984388109   -1.44544649661068    3.13580923231630
C        -1.84139712529609    1.44770481187819    2.51106019809420
C        -1.73659008101459    2.71914860000238    1.67599656866212
H        -0.92962536827750    2.60107086370416    0.94763283309090
H        -2.65992985045452    2.90728896692851    1.13222024820222
H        -1.52211224999668    3.58421940725809    2.29988638012266
H        -0.96836153353611    1.35352164546996    3.16239559873767
H        -2.73686717337502    1.44539113801039    3.13581991354957
C         2.54774841684346    1.20157817994071    3.32589366361628
C         1.68660172112673    1.18833697885285    2.24436163998175
H         1.37197700850269    2.14223343558817    1.83668542266458
H         2.88970637402022    2.13562421600774    3.74846123357799
F         4.69832721889142    1.07540802094873    5.10645683604317
C        -1.22234552372466   -0.00004418360306   -1.66923909019832
C        -1.68658468489306   -1.18840441027870   -2.24442628529799
C        -2.54778717627747   -1.20159564309783   -3.32591505593113
C        -2.98382637122606    0.00000267344362   -3.86799877661527
C        -2.54776256150541    1.20157764461853   -3.32588526698331
C        -1.68655981159203    1.18833679370720   -2.24439824994014
H        -1.37195182012620    2.14223172833356   -1.83670634060407
H        -2.88973372806618    2.13562328073516   -3.74844245980131
C        -3.89135361144551    0.00003216813845   -5.05564038518093
F        -4.69836117241629   -1.07531825603358   -5.10649183208345
F        -4.69832870513809    1.07540826685256   -5.10645909527970
F        -3.21056486829573    0.00003978416198   -6.22634999840721
H        -2.88978139046266   -2.13562052699983   -3.74850041895639
H        -1.37200009170386   -2.14232220042402   -1.83676978547324

