87
CSD_code = FABFIZ | q = 0 | S = 0 | Stoichiometry = C42H33ClN6O4Zn | MND = 4
Zn        4.61430690762434    6.33416903114682   18.22427216618456
Cl        6.79660544844540    6.33346618887872   18.61602438628213
N         4.56057453580557    8.01548784551085   16.90399697936715
N         4.65024726252622   11.06283032881148   14.06236503519646
H         5.56311586367738   11.48959863884929   13.97810200221611
N         4.08920826693201   12.54417291224455   12.41827296121400
H         5.08402214290791   12.64818048806248   12.28344670540087
O         2.49398787920731   11.16222406516742   13.27367137005939
O         3.70235445087405    6.33528770328280   19.99732918974430
O         2.38746657810698    6.33371310777857   18.26314186498684
C         3.45075547906798    8.35805925889745   16.25498946162986
H         2.56605259681282    7.79888039951201   16.51960926081622
C         3.40060714337311    9.35835517896073   15.30593085873797
H         2.47959354221413    9.59620713238295   14.80192789509419
C         4.57122758023034   10.05728908467914   15.00468873780017
C         5.73030800298715    9.70092229706136   15.70201991938835
H         6.66363133791048   10.21169352920622   15.51668673897351
C         5.67807972055940    8.68363303672771   16.62890232321443
H         6.56040415321225    8.37384712544893   17.17124552504529
C         3.63352649090615   11.55119095279178   13.24485412573850
C         3.27256548508830   13.15334138845345   11.43209593088709
C         2.16504751610734   13.91329886795918   11.83171747928582
C         1.83698917091365   14.14056149338458   13.19285013088622
H         2.46977752477222   13.72670727245271   13.96180863838705
C         0.74283686893779   14.87362208842441   13.53686604942178
H         0.50488939019774   15.03753595343188   14.57737368775607
C        -0.09065910052255   15.43135092937865   12.54566657217305
H        -0.95848907188784   16.00049027476757   12.84454565958084
C         0.20648085742279   15.26200168852143   11.22920806586607
H        -0.41584434960363   15.69672143406612   10.46027320142379
C         1.34143667094970   14.51199600777267   10.82691566226246
C         1.67470730216140   14.36171157455947    9.48514487615138
H         1.05265627200875   14.82382678171950    8.73156977091033
C         2.78976184764316   13.63070744774514    9.08837749545691
C         3.13196943637912   13.48280227404904    7.71993171030604
H         2.51213644005381   13.97466421871789    6.98428420924880
C         4.20661662999899   12.74026918897695    7.33941719788449
H         4.45944800581870   12.63078150939849    6.29531923236287
C         4.99728216943896   12.09448909863853    8.31104950314223
H         5.83714991721228   11.49419658494931    7.99300190783616
C         4.70685241391020   12.21858039879094    9.63586346198859
H         5.31636304181438   11.69754665698051   10.36078480468616
C         3.60441506385480   12.99582276997653   10.07748521202173
C         2.55277329129443    6.33447824886130   19.49571609608959
C         1.35655678338142    6.33529511870920   20.42445161522371
H         1.69134837781764    6.32136259573335   21.45662237018692
H         0.74229345517449    5.46249234844947   20.21695513485501
N         4.56032583956079    4.65321015188680   16.90316162673971
N         4.65030975583006    1.60562038649948   14.06183538954404
H         5.56329877198621    1.17911914212284   13.97751453336553
N         4.08954425835280    0.12361880738132   12.41828875035338
H         5.08438017840022    0.02011655367148   12.28322229648487
O         2.49393040872732    1.50517603589148   13.27366113778750
C         3.45043151188458    4.31019407120819   16.25451425609705
H         2.56559331127419    4.86902030438486   16.51940861966904
C         3.40035275454612    3.30980727071868   15.30553105818746
H         2.47926471214623    3.07152182755493   14.80186875325369
C         4.57114761490995    2.61130327303133   15.00397985722892
C         5.73032227783038    2.96819285443067   15.70087349920457
H         6.66378983506099    2.45781086498520   15.51522307531425
C         5.67799061720507    3.98548772405364   16.62773482356941
H         6.56042060448540    4.29575805354140   17.16962781755729
C         3.63359325286725    1.11663787559072   13.24471478589368
C         3.27301933018982   -0.48559551479040   11.43206684698154
C         2.16550667442773   -1.24556548331904   11.83167817661289
C         1.83747948738343   -1.47283295211052   13.19282330743947
H         2.47058615669756   -1.05935398424293   13.96174538187127
C         0.74294702773046   -2.20526876125742   13.53684521597271
H         0.50506516448713   -2.36928880191013   14.57736404898413
C        -0.09088500046635   -2.76242739007061   12.54564542661698
H        -0.95873877731424   -3.33156113931550   12.84451971993020
C         0.20639477327752   -2.59343101990056   11.22920691021419
H        -0.41600137977036   -3.02811426272765   10.46027498723291
C         1.34173774695582   -1.84404264483317   10.82686484758680
C         1.67506518519254   -1.69376214506569    9.48509445501496
H         1.05286984628621   -2.15561415153760    8.73148508636874
C         2.79011172219770   -0.96269573982786    9.08832692055289
C         3.13214195515546   -0.81444308841681    7.71986981570731
H         2.51232778044094   -1.30630409024299    6.98418663936623
C         4.20663238864113   -0.07170207562655    7.33939151336806
H         4.45924866471285    0.03815149270519    6.29526689715513
C         4.99741473305364    0.57384110000787    8.31106444108961
H         5.83689720931648    1.17470957352316    7.99302687234668
C         4.70716769226379    0.44946297341114    9.63585704260629
H         5.31663117240246    0.97052949290426   10.36082633026344
C         3.60480079023772   -0.32788872783826   10.07745751586914
H         0.76014715793722    7.22483962318687   20.23637813748781

