87
CSD_code = FABFEV | q = 0 | S = 0 | Stoichiometry = C42H33BrN6O4Zn | MND = 4
Zn        4.46110114938461    6.30400884038561   18.66653980857416
Br        6.68407785323523    6.30418104682948   19.35482210449391
N         4.53726740993625    7.93513172555504   17.23540963733453
N         4.73810717943001   10.73262916008571   14.15091891800918
H         5.67265669817970   11.08891017454920   14.00208815356404
N         4.20937431311170   12.08983272912873   12.39150370275672
H         5.19120776340858   12.05057008717041   12.16079675705455
O         2.54881746822218   11.00251627326725   13.50415129139751
O         3.35946380885190    6.30420515273196   20.35091380527784
O         2.25165740478882    6.30394608007761   18.48364292274336
C         3.44158688869795    8.26880490694611   16.55740399870766
H         2.53636518728004    7.76283300230888   16.85609370783537
C         3.42773106429575    9.19329447511798   15.53439224357027
H         2.51306918818686    9.42942039563078   15.01864228620254
C         4.62379047503342    9.81853298003461   15.17749720356715
C         5.77028956120257    9.47052353024980   15.89899661696153
H         6.72392439291660    9.92393216873011   15.67340970141008
C         5.67851481971411    8.53707979273084   16.90689731156429
H         6.55697360737904    8.25724140495517   17.47159339028256
C         3.71797157043983   11.24852134776539   13.35353536191699
C         3.36724607539031   12.67026142427040   11.40683066964464
C         2.42825930663285   13.63391601066705   11.79601191926644
C         2.30178849210996   14.08789510147460   13.13379116910843
H         2.95864838002712   13.68442698694740   13.88837825023280
C         1.36995674726417   15.02093915719542   13.47124213942880
H         1.28411512690455   15.35796353944979   14.49361868109852
C         0.50748984851729   15.56158446240653   12.49520351554795
H        -0.22897119136117   16.29438888230252   12.79011066550212
C         0.61225514525605   15.16898615222568   11.19708224400907
H        -0.03566722418033   15.58424424027098   10.43864191259539
C         1.57484134675365   14.20535688665803   10.80052545137724
C         1.71362149547927   13.81789474823827    9.47198093730782
H         1.06988636937256   14.25817099431214    8.72361205957559
C         2.65928639777733   12.87493804384095    9.08206259385326
C         2.80196018856556   12.48056802831986    7.72723278697783
H         2.16728193245712   12.95072764913090    6.99022531843758
C         3.70822358332508   11.53361728146658    7.36208892019806
H         3.80971171452825   11.23778650887995    6.32863445256134
C         4.51948832396092   10.91904586562850    8.33705708333898
H         5.22063520061617   10.15519477447081    8.03419252632946
C         4.42033792440184   11.27679222818015    9.64725611096367
H         5.03824105440745   10.77863056805435   10.38113132617221
C         3.49967764958782   12.27111744839489   10.06888250935401
C         2.27274755232191    6.30396068643658   19.72885674326031
C         0.97541165883434    6.30417668976886   20.50627595661587
H         1.18039678819558    6.30436720497428   21.57203599272845
H         0.39829252916844    5.42296516673473   20.23530088014647
N         4.53726561138569    4.67282550816420   17.23541882564457
N         4.73808073572563    1.87538402600020   14.15084442809247
H         5.67265197928162    1.51917855463468   14.00196030283348
N         4.20934661967447    0.51815747255393   12.39143363978280
H         5.19117752565567    0.55743418700627   12.16071676789233
O         2.54878365371274    1.60540865508769   13.50413417525778
C         3.44156651279334    4.33908326352389   16.55748062934884
H         2.53633241735608    4.84500624763181   16.85622380960089
C         3.42769578597947    3.41461597338653   15.53444684657808
H         2.51300999807376    3.17843460531360   15.01876150479535
C         4.62377414928040    2.78947236400115   15.17744020401403
C         5.77029331895270    3.13754685447373   15.89887864025334
H         6.72394386148235    2.68420052628465   15.67321259873759
C         5.67853360348488    4.07095561979665   16.90681385026278
H         6.55702009703804    4.35087009718527   17.47143439571002
C         3.71794225198691    1.35944042878102   13.35349272948278
C         3.36721662189141   -0.06229204452841   11.40677068311930
C         2.42830543101287   -1.02601848085708   11.79596056708920
C         2.30192233206602   -1.48005099711175   13.13373258415202
H         2.95878564213625   -1.07652728767620   13.88829885625307
C         1.37011258290553   -2.41309030560673   13.47121548107306
H         1.28436745693678   -2.75018261361828   14.49358849785504
C         0.50755270796038   -2.95366611987372   12.49522834612657
H        -0.22874532250805   -3.68665221299030   12.79012030769571
C         0.61226258433385   -2.56107228662967   11.19710998930476
H        -0.03561267049238   -2.97641899680668   10.43866856285865
C         1.57484795846454   -1.59746445534240   10.80050505031687
C         1.71356068674064   -1.20996592148488    9.47196050951195
H         1.06978074004615   -1.65021394552069    8.72361283966235
C         2.65916022950587   -0.26694585016848    9.08202701875671
C         2.80172848425899    0.12748180770214    7.72720561521487
H         2.16703282611421   -0.34267332187868    6.99021560505111
C         3.70793131276193    1.07448966505555    7.36204227674483
H         3.80938801372250    1.37031534554931    6.32858666296731
C         4.51921851430681    1.68906868782591    8.33699105196866
H         5.22038693106585    2.45288719616993    8.03409784285605
C         4.42014935641663    1.33127496274081    9.64718716025448
H         5.03810062215104    1.82940550598352   10.38103971902818
C         3.49956090506064    0.33689048189268   10.06882735208659
H         0.39835771119137    7.18537479838110   20.23500233298534

