325
CSD_code = FABMUS | q = 0 | S = 0 | Stoichiometry = C192H112O16P4Pd | MND = 4
P         7.39306923398068    5.90220790019494    8.16701890005025
O         5.99707651556392    5.13009144935617    8.03433120672779
O         8.26070653513805    5.31511871583347    6.95250366806952
O         8.24504016860508    5.85449722490064    9.36495958979853
O         6.95698033279032    7.32522749969290    7.87099344194068
C         5.71186455598275    4.06114088441462    7.21808527453441
C         6.02068025248257    4.05076571250273    5.87142760630636
C         5.76989083313765    2.87051211187567    5.10087682440387
C         6.24601768067639    2.70029608766671    3.78203217868796
H         6.84464533514414    3.47479411854536    3.33082974096337
C         5.99118330971319    1.55499427345693    3.07810755027341
H         6.37246083530002    1.44612938515000    2.07353760709689
C         5.25029488279392    0.51190166918232    3.65036857135066
H         5.04854768297455   -0.37994554207810    3.07611857124964
C         4.81288431085800    0.62381306033246    4.93958202179918
H         4.26770243964296   -0.18159979553034    5.40996668193759
C         5.07634334294369    1.78568890244989    5.69449949000004
C         4.67629741128612    1.88829330046461    7.03952524918414
H         4.11672874524173    1.07763700517156    7.48418738283906
C         4.98979057427655    2.98377931084612    7.80109660906348
C         7.84871834931518    5.69725917191750    5.69461552300282
C         6.67584202727305    5.18653775262142    5.19285751340101
C         6.17672794526904    5.69634025244956    3.95862951118192
C         4.88508168086212    5.39739498789011    3.48089215611849
H         4.23178340497654    4.78891595400712    4.08707393547829
C         4.45735542078518    5.87776497816445    2.27375373609962
H         3.46430203249466    5.64274970858819    1.92072442226658
C         5.30021803767185    6.67282546382396    1.48502463334727
H         4.95661461436907    7.02757757159180    0.52480755743656
C         6.54302556048362    7.01339627966901    1.93997761570799
H         7.18769879090644    7.65054897376938    1.35194765116111
C         7.00438443731637    6.55534019913364    3.19128421595401
C         8.27460988053800    6.91632470099666    3.68364579048527
H         8.90675924197555    7.52682884479654    3.05796225973579
C         8.69286313544822    6.54500738724183    4.93711738722492
C         4.58635640827163    3.00888568919263    9.21800471338812
C         3.62400395924678    3.95452424470201    9.69222055938849
C         2.97241841208751    4.83014036186188    8.80793032434903
H         3.27162614140309    4.84522407713987    7.77047506552009
C         1.94441609708093    5.63050487157531    9.23879273765991
H         1.43119403993109    6.28689100437128    8.55110490954668
C         1.53151718191892    5.57240967734313   10.56770218185049
H         0.68618432323559    6.15881628469312   10.89358487306305
C         2.19153283040082    4.76431260569776   11.46197805144492
H         1.84971877536798    4.73881019683414   12.48477550638045
C         3.25894946837766    3.95066414397305   11.05919854738940
C         3.96188367146391    3.08991390436404   11.97766100060571
C         3.82108855863607    3.17930910962286   13.36848281262156
H         3.18273178636637    3.93680635950538   13.79556935456681
C         4.50805545335134    2.33604148290672   14.20963835730021
H         4.39180336489974    2.42849455845779   15.27983337220328
C         5.36057022998652    1.35965289986795   13.69318040782474
H         5.89279331504220    0.70056407363220   14.36282211297703
C         5.52950901477617    1.25777140514170   12.33701964522648
H         6.20617271284706    0.52191783428789   11.92588130437690
C         4.85069439680749    2.12017737398380   11.45909539942085
C         5.09243591383439    2.06745630024707   10.06461217570859
H         5.77524241678157    1.31618505282834    9.69137822565219
C         9.97842039458057    6.95169625993284    5.53732528821384
C        11.23830521774185    6.69571023281327    4.89846868394273
C        11.31221698976306    5.99467911906934    3.68282575177285
H        10.39866139045943    5.63304528382061    3.23584718535873
C        12.51601485660696    5.74395265093603    3.07492961078209
H        12.55329651317422    5.20165157718707    2.14140207392140
C        13.69688230539099    6.18225775241295    3.67281595584613
H        14.64640487996606    5.98265752835750    3.19792268202105
C        13.65324467885954    6.84822528980624    4.87221715171862
H        14.58235944000441    7.15329618871297    5.32658048873063
C        12.43888402524322    7.12363423424204    5.52205213907733
C        12.39194415173547    7.77780781349079    6.80791191647832
C        13.52379126367712    8.26705080491340    7.47825726820612
H        14.49833645173755    8.20583177055430    7.01983149899620
C        13.41648837143302    8.83865048577609    8.72251102331048
H        14.30022613105845    9.22106882587227    9.21349785210365
C        12.18109759198311    8.91688785668123    9.37010070241723
H        12.12025970020097    9.34661625309482   10.35860274094284
C        11.05334376087506    8.45206204162577    8.74400836933304
H        10.07686960943538    8.48478974300270    9.22876921484068
C        11.13956697406550    7.91914852246196    7.44599861969135
C         9.96005368143693    7.52649131897671    6.76878950765535
H         9.02640362749665    7.73544426407192    7.25933814926345
P         7.64738725642302   10.97929224298990    8.26315229626868
O         8.79229115752303   11.75154020307699    9.07238120743145
O         7.77982739416006   11.56760525130233    6.77680440267596
O         6.22089023707631   11.02696146832555    8.61757767589088
O         8.17122032302350    9.55621638824208    8.32131199559451
C         9.54340832127062   12.81834606986051    8.63896347502540
C        10.18557307417662   12.82894042213945    7.41568063996174
C        10.87980891846503   14.00860738530846    6.99575005624432
C        11.37563438972685   14.18040656043220    5.68439493532981
H        11.21182582528630   13.40802063958476    4.95066474050149
C        12.02969069546211   15.32485769883441    5.31747916163818
H        12.39295818290699   15.43500216411622    4.30639860460129
C        12.22355290678659   16.36542020109050    6.23619427927162
H        12.75250399785774   17.25653133828613    5.93289381022294
C        11.71742365641089   16.25218574405616    7.49990947031286
H        11.82791462301965   17.05587311870399    8.21339071380388
C        11.02327507997463   15.09136610306370    7.89977249208515
C        10.45169526505936   14.98796094566448    9.18133744556427
H        10.58949933681422   15.79691033080217    9.88461991677869
C         9.71493881422836   13.89389305932646    9.55329796701165
C         8.91084541607031   11.18558645218061    6.08932707256243
C        10.12836484161110   11.69480969100088    6.47224651010838
C        11.31000116577947   11.18561569586397    5.85833502485721
C        12.60205179056477   11.48283225307502    6.33607239575978
H        12.70446476642787   12.08873968212398    7.22313783605505
C        13.71180439394509   11.00412374731886    5.69561933457245
H        14.69588151913394   11.23800350184645    6.07365560335750
C        13.58411725361494   10.21228635861141    4.54612610843702
H        14.46942543516870    9.85893417758445    4.03887929310778
C        12.34399087584420    9.87296137550034    4.08301936040596
H        12.23636394678341    9.23803853494584    3.21546895079797
C        11.17997503183117   10.32946916338180    4.73501743179331
C         9.89473951732193    9.96988781044139    4.28223302924073
H         9.82119813920519    9.36153968906406    3.39434642295021
C         8.76198266372344   10.34009026760974    4.96329055254612
C         9.09828008283415   13.86697987680376   10.89124894750519
C         9.51865133585290   12.91841214805960   11.87550061682534
C        10.58924992185896   12.04352426378097   11.62724656742989
H        11.03865143059890   12.03115389948261   10.64541731562453
C        11.08819424522438   11.24077352958840   12.62205048113915
H        11.92607333956374   10.58535291515270   12.43354178991288
C        10.53484156773840   11.29516053788731   13.89904089578893
H        10.96365280446038   10.70672053585777   14.69559255318912
C         9.45106030087888   12.10218369788811   14.14905720507048
H         9.04325053378567   12.12470248383432   15.14745826852149
C         8.90438761687581   12.91875111195594   13.15006559179847
C         7.77303294993120   13.77934035671298   13.39078603330822
C         6.97250480738931   13.68619065949250   14.53649033551152
H         7.17709478255286   12.92557636681200   15.27360071785947
C         5.90375258598503   14.52954271997662   14.72908914836792
H         5.29348778199204   14.43400901247394   15.61556581864366
C         5.59548150866590   15.50997205947941   13.78539328815336
H         4.75593349227740   16.16927130675689   13.94839616298634
C         6.35205295179056   15.61549837722947   12.64759161550545
H         6.10798113246808   16.35450016258624   11.89745429789158
C         7.43823094702255   14.75275573201923   12.42144115887569
C         8.16371976013402   14.80842036471826   11.20632184266061
H         7.88977882146775   15.56211701321321   10.48047640595106
C         7.39512463308062    9.93419206714105    4.58222462874595
C         6.85409808337627   10.19234572665523    3.27774298601225
C         7.58859465046433   10.89591050644172    2.30807986660763
H         8.57257192220338   11.25831771442676    2.56418727064400
C         7.07018269288079   11.14843644004524    1.06348336437359
H         7.64884906958455   11.69300298946310    0.33168104007963
C         5.78497584334360   10.70945792848781    0.74790487845467
H         5.37312361948151   10.91032955627037   -0.23035229014670
C         5.03797477241129   10.04117690791309    1.68566092548568
H         4.03727959614295    9.73539701391892    1.42515498475592
C         5.53709563652703    9.76398735894025    2.96896247354309
C         4.73643208376616    9.10722957271262    3.97453093682473
C         3.44117936347941    8.61752122678254    3.74592681857736
H         2.99946598165839    8.68056848522285    2.76381359367663
C         2.71329766316187    8.04321758731420    4.75924344079594
H         1.72300179163914    7.66068670414826    4.55608720987689
C         3.23005715076402    7.96231505972221    6.05462576268735
H         2.63344711068462    7.53023238612431    6.84388404980284
C         4.49341658567096    8.42764972167515    6.31410074969928
H         4.91953502364770    8.39270745130510    7.31740700529862
C         5.27216292963852    8.96374378280300    5.27376209661113
C         6.60806566034276    9.35716703303789    5.52817539251797
H         6.99783101203597    9.14687217375143    6.50795314339020
Pd        7.05544103951086    8.44001419701865    9.47007760909608
P         6.68207392951005    5.65292609424279   11.07000699441609
O         8.07819342527052    5.78150797043726   11.87958276838485
O         5.64492479538300    5.59430112790611   12.36465431444168
O         6.44640585633990    4.36793921102069   10.42655417109534
O         6.26486165734135    6.99241490870954   10.45166467802433
C         8.35580931080255    4.60943523607738   12.55410647449530
C         7.81748176604866    4.44886679591448   13.81592447097708
C         8.04169415090417    3.23937812922789   14.54049386200592
C         7.41869444256878    2.94284751879150   15.77186148578270
H         6.71930197845136    3.64551640810696   16.19396613097483
C         7.67523029389355    1.77181356458608   16.43091622927298
H         7.18838148012458    1.56645003691867   17.37306670072689
C         8.55749047463778    0.82530673533613   15.89159707038420
H         8.75625985741299   -0.08953950852724   16.43025697745375
C         9.13688539968580    1.05701494411498   14.67626365723440
H         9.79368670604111    0.32451327211384   14.22952281913426
C         8.88235493458354    2.25047874716882   13.96855571353730
C         9.40917191062927    2.45939733528793   12.68057886123962
H        10.01688382207486    1.68454655231890   12.23446882780601
C         9.13719575423995    3.59450304155755   11.95795048045770
C         5.86545743826338    5.96739411308746   13.64218652934093
C         6.94349230968897    5.49121607394610   14.37380355907900
C         7.14789518342262    5.95444751388329   15.70557849229664
C         8.35545464229259    5.74046412480303   16.40096535882723
H         9.16999619485865    5.24970640599448   15.89068036161878
C         8.50200303814871    6.16040102942597   17.69487257912806
H         9.43237399213874    5.99278818470603   18.21640944464002
C         7.45125818575693    6.80995653521290   18.35620584228203
H         7.57908620909793    7.12528901220388   19.38084653233100
C         6.27968835990785    7.05928936562238   17.69678126053853
H         5.47228315176977    7.57856653940581   18.19367971998759
C         6.10745695746805    6.66082373627740   16.35615044388297
C         4.93752608839488    6.96515199771013   15.63223837446211
H         4.12265127678675    7.45210384425128   16.14254592179143
C         4.84167805698611    6.72677623467936   14.28534703799788
C         9.60546372759846    3.65367080663391   10.55521471276417
C        10.84376002902811    4.27381009570847   10.20633260419839
C        11.68180292922394    4.80579109559875   11.20012728700162
H        11.35861633896649    4.75043829157144   12.22951222644427
C        12.89082635609391    5.37086985620194   10.87799541714956
H        13.53636867103443    5.76318561352564   11.65040210447236
C        13.28980759663875    5.43741748574247    9.54472810669617
H        14.23529801747584    5.89181539126332    9.28793755103114
C        12.49112033595875    4.91244729100678    8.55727046859637
H        12.83677417080255    4.96004322636120    7.53702217191232
C        11.26403770800107    4.30085627505591    8.85386406259231
C        10.45991410190843    3.65291716182069    7.84830697415727
C        10.79374220275992    3.64376170431122    6.48685479904995
H        11.65804407444697    4.18447367056732    6.13476207537341
C        10.03368087454331    2.95806706266983    5.57003028836487
H        10.31169179363431    2.97079951884063    4.52577445683064
C         8.91034644950078    2.23910900697913    5.97784417423606
H         8.33229003047818    1.68496624300370    5.25292713481164
C         8.54255577282280    2.25132551556640    7.29837629416452
H         7.66219194264186    1.71602200640900    7.62425085442486
C         9.29211456957841    2.96255204301370    8.25142660675001
C         8.88671756096370    2.98850501798279    9.60940825104585
H         7.96450795865328    2.50241502596352    9.88617496058076
C         3.73014413889259    7.25470995837813   13.47740440661059
C         2.35663900849655    7.17228071033298   13.89004258112491
C         1.96641522297602    6.41323316797655   15.00626950363453
H         2.71013600005117    5.83020773853314   15.52826375534346
C         0.66050511730567    6.37428073127963   15.42414824259184
H         0.38060240443962    5.78113874767471   16.28250257822450
C        -0.30737967817050    7.09835404312659   14.73135051103289
H        -1.33419201590315    7.08288297816753   15.06634716862804
C         0.03911889929321    7.80246820785680   13.60542982360230
H        -0.73662291496386    8.32168525228835   13.06567433214246
C         1.36139314771076    7.84300607712714   13.13540873449322
C         1.70612240090944    8.45630916112683   11.87457111667784
C         0.76656346999698    9.04974333381868   11.01671411616473
H        -0.25838272299875    9.17259563031074   11.33122740240839
C         1.12343392882782    9.45977839150881    9.75562042277575
H         0.37825423459831    9.89929679799315    9.10795556995394
C         2.42967430408425    9.29177080316972    9.28899752844237
H         2.68790155166603    9.58486920197570    8.28448008670458
C         3.38780244241942    8.77580534388517   10.12203299774144
H         4.41935376473075    8.65280744784215    9.76639753070612
C         3.04517376427198    8.37863157872477   11.42737666759733
C         4.03418232111391    7.86599495126326   12.30039885846051
H         5.05765829631996    7.95441138448352   11.97885903989018
P         6.29520543332714   11.22468054425394   10.93019527753618
O         4.70905624341308   11.09692271507558   10.63179274633993
O         6.23545263793061   11.27936367759111   12.58802727186531
O         6.89399408692223   12.51011673375282   10.59883355572910
O         7.01538029052462    9.88592049401056   10.73114477888160
C         4.05977973370653   12.26947295675135   10.96292664351061
C         3.64399143203177   12.42827485162726   12.27040908100972
C         3.00436991989778   13.63842159117984   12.67577619715728
C         2.67313671360661   13.93253765898282   14.01595358346842
H         2.92468509304945   13.22689710716363   14.79047487581965
C         2.05275127173031   15.10497261306606   14.35062684590262
H         1.80709748152538   15.30859036950376   15.38264102676776
C         1.74018938676018   16.05518006108194   13.36850486387299
H         1.24146016277829   16.97123520488547   13.64910269363838
C         2.09374420357425   15.82542339090228   12.06902868794798
H         1.89051214083003   16.56059114807701   11.30368782025450
C         2.74423206460995   14.63052058195692   11.69609257689377
C         3.18507970619498   14.42312114779208   10.37599877954450
H         3.01818518081264   15.20010473818328    9.64308492643568
C         3.85944014444144   13.28683112257493   10.00336171721170
C         5.23343781419188   10.90526586730164   13.41025668298461
C         3.93979774637299   11.38305634178656   13.26114372723042
C         2.91450015512768   10.91892213681955   14.13469212312364
C         1.54628812564703   11.13618139800743   13.87312853963422
H         1.26380870667521   11.63021545499288   12.95614684241328
C         0.58945110403993   10.71546864431894   14.75596767234882
H        -0.45539214048879   10.88577619753984   14.54383156381415
C         0.95202388165479   10.06161754689272   15.94105700448321
H         0.18538720240383    9.74570922363511   16.63253469531049
C         2.26940180430723    9.80904549672504   16.20619177898750
H         2.55520817848688    9.28652955302641   17.10826756434470
C         3.27624993281441   10.20854901201932   15.30484599178438
C         4.63462715602160    9.90232728321380   15.52036974817407
H         4.91778958941355    9.41287088403451   16.43785930040199
C         5.58749670497217   10.14281292663684   14.56417220016531
C         4.41962776193327   13.22985867688379    8.63467677276613
C         3.70904406839087   12.61146497852810    7.56121203544435
C         2.42609207887679   12.07788890475954    7.76677997060270
H         1.99976886194953   12.13048254374160    8.75805710357834
C         1.72011337861072   11.51466553846099    6.73274719318220
H         0.72736755741683   11.12104868035939    6.89633997689634
C         2.28714587082441   11.45173008862425    5.46164295721447
H         1.73817272516218   10.99894277555683    4.64924514569925
C         3.53616607994484   11.97827604299902    5.23519361900029
H         3.93947909211010   11.93350597945987    4.23619228538776
C         4.27248211804912   12.58796642690474    6.26176504348330
C         5.53729972187013   13.23752613107603    6.02536913355978
C         6.17202776236210   13.25031393690654    4.77554278903673
H         5.74681486736130   12.71131448875143    3.94365582637152
C         7.34548990256233   13.93758062622098    4.57779706265744
H         7.81564222991223   13.92786988737970    3.60476763601419
C         7.93051295851015   14.65455572141498    5.62125184670058
H         8.84078974118590   15.21020298936025    5.44990623600485
C         7.34841073614269   14.63849432668889    6.86226126609112
H         7.80290244627464   15.17210822806500    7.68474224797923
C         6.15928619081734   13.92564399603133    7.09426349350086
C         5.58095480058556   13.89628667989556    8.38799539650486
H         6.09912329536261   14.38087445487160    9.20043288787243
C         6.95721003760587    9.61560044818289   14.67787028359359
C         7.72780573840980    9.69867352254832   15.88731383654395
C         7.29271092358467   10.45600556337425   16.98801547757911
H         6.38710581595392   11.03679223827257   16.89816203567463
C         8.00901831026402   10.49607393680812   18.15711837660395
H         7.65918277981541   11.08787191668601   18.99037712690922
C         9.19638543746429    9.77504767330961   18.26370324856990
H         9.75557732202197    9.79165462711782   19.18773349524606
C         9.67066706433724    9.07257680050347   17.18428686257201
H        10.61205054703920    8.55582299969922   17.28157426689276
C         8.97585128834072    9.03071052047057   15.96507582556805
C         9.53902454670003    8.41909655213912   14.78464209152969
C        10.81182688488470    7.82784911135104   14.74805255998653
H        11.38265266246547    7.70487010768269   15.65556568485839
C        11.36609427991475    7.42042744606760   13.55952041242412
H        12.35422947303712    6.98280043983204   13.55526876651809
C        10.68153711122954    7.58894379645403   12.35317608902621
H        11.14289202687164    7.29826319442753   11.42349465616194
C         9.41082572071312    8.10219143514094   12.35879065192290
H         8.86174984083110    8.22540033954937   11.41593962952079
C         8.81684715266792    8.49650860010243   13.57155281091802
C         7.49669977449411    9.00649183926424   13.58728780488858
H         6.93183354934920    8.91805494559438   12.67520719565024

