45
CSD_code = FABQUW | q = 0 | S = 0 | Stoichiometry = C24H12CdCl2N4O2 | MND = 4
Cd        7.22422576863496    2.94681538382905    9.34572900875018
Cl        8.79235463488932    4.25224571654947   10.54556000510389
C         8.31392749069075    0.25363215198920    7.94886830043705
O         8.89284729828276   -1.84149207022862    7.22003727019125
C        11.32860476671941    0.04785817899466    4.13243521454381
H        11.91159680181171   -0.49269657024413    3.40200641774750
N         9.09302483080377    3.52134131734553    6.90652843857766
H         8.54019443898597    4.03543298605023    7.59591130110864
N         8.30472120926881    1.58144061611857    7.94794839508085
C         7.65775397144738   -0.70853290244708    8.79132573879473
C         9.83393390921568    1.48915191427864    6.00622534515454
C         9.04672766758602    2.24366483870402    6.99222272723698
C        10.59216213150938   -0.63800280376166    5.06669095441095
H        10.57755423648158   -1.71661385425260    5.09423688216360
C        11.32775321569654    1.44427599007836    4.12219909202840
H        11.91148996460274    1.97005536278509    3.38191431994093
C         9.04873331005704   -0.52167774985360    7.01665250434346
C        10.59023581319202    2.15664124332449    5.04623575012840
H        10.57708043897625    3.23445318155143    5.05369812417316
C         9.83724231972271    0.07500002207768    6.01388388474633
C         8.05540852796427   -1.96884347229803    8.28689613986224
C         7.65173531470228   -3.18946239507732    8.80154884339662
H         8.00100004536757   -4.10644685813793    8.35737240241582
Cl        5.65654061768827    4.25409708355857    8.14723113190927
C         6.13380967033205    0.25363899612303   10.74201440917768
O         5.55503516553506   -1.84148489303227   11.47096774272647
C         3.11898251056612    0.04790731299392   14.55833105788807
H         2.53604669922390   -0.49263199901582   15.28881512572605
N         5.35436018883806    3.52134872338463   11.78409753273399
H         5.90717571142194    4.03549527936749   11.09476028186437
N         6.14293214411723    1.58144427738208   10.74284986632956
C         6.79012528949698   -0.70853291668817    9.89967043312516
C         4.61358122452486    1.48916286613941   12.68446713632149
C         5.40078462542654    2.24368231574441   11.69846698256487
C         3.85548606657080   -0.63797315536821   13.62413889123416
H         3.87015835674466   -1.71658389280339   13.59666385296791
C         3.11971120811912    1.44432727733166   14.56844854525251
H         2.53594392664985    1.97012017526557   15.30869986881778
C         5.39900629204686   -0.52167636425750   11.67424029259971
C         3.85719226991218    2.15667170130447   13.64437484549088
H         3.87026524893665    3.23448255640101   13.63681170433917
C         4.61038190554866    0.07501127400367   12.67691131814385
C         6.39256448455706   -1.96884022786313   10.40417289562462
C         6.79638698866039   -3.18946146109061    9.88964218006388
H         6.44722129847493   -4.10644515625674   10.33389684476109

