53
CSD_code = FABSAE | q = 0 | S = 0 | Stoichiometry = C17H27IrO7S | MND = 6
Ir        0.32938896966844    5.44016886176404    3.58506709351126
S         0.52814340722482    7.13255213799886    1.87438793370294
O        -0.54116735533097    4.20757099614276    2.23531245609470
O         2.19305908931294    4.88278219443195    2.96722433117823
O         1.17109916005518    6.81873971257484    4.87570545852611
O        -1.53669084568305    6.09294174545046    4.13586729667420
O        -0.96260974882911    4.79017546072614    6.83426366829366
O        -0.22501158244593    1.75259492425469    4.13250133339878
O         0.60334691328874    6.66372259357593    0.49844024103792
C         0.07932294877522    3.40685209320382    1.48700215683734
C        -0.77952372333337    2.49293004416769    0.65109994121645
H        -1.78431017595221    2.89853168688738    0.57695995180326
H        -0.35579129322452    2.35044613065130   -0.33809360171206
H        -0.82795593200625    1.53111979014029    1.15998477208581
C         1.46542493291935    3.26935486801640    1.37402349395176
H         1.83379462550240    2.53808281131159    0.67303117145545
C         2.41017546876746    4.00219570841463    2.08243166636896
C         3.86606328329055    3.73763491121866    1.76889369978068
H         4.08801988693123    2.68320999639223    1.91196823148296
H         4.07123265693480    3.99506264098986    0.73214333659380
H         4.49719891925521    4.33332598412716    2.42268200927662
C         0.52417499750408    7.57968086936492    5.65506470827924
C         1.36043108398549    8.47873124307505    6.53974324826547
H         1.03844669462088    9.51349165085757    6.45068383324904
H         1.23842615690501    8.17237723054720    7.57607119862366
H         2.40841271858559    8.39217230342953    6.26606461849734
C        -0.85842416524308    7.67223137739032    5.77914942952439
H        -1.24323535763909    8.34414486781377    6.52921142407266
C        -1.78698477248759    6.90226338951481    5.06829853009357
C        -3.23986180459999    7.05746191808645    5.43993023715826
H        -3.87004863292729    6.66320348739645    4.64795527526180
H        -3.40815638831111    6.47251734139791    6.34240859037336
H        -3.49026889776628    8.09455723902486    5.64309302544099
C         0.33116624651687    3.85663853329429    5.03290898146280
H         1.34065213048517    3.43244060864126    4.97185148427738
C        -0.64141026952300    2.79563764919286    4.59769223063640
C        -2.10233579171829    3.06693115398101    4.78242729170438
H        -2.67986602778076    2.17611329118285    4.55008148666434
H        -2.28723999692122    3.39626968011893    5.80193301582127
H        -2.38510123283850    3.88145640224077    4.12052788095997
C         0.11463592022786    4.46234818357690    6.37501823921489
C         1.38579193826668    4.61840645667158    7.18128062741619
H         2.14024576836575    5.12130982302468    6.58369516640161
H         1.18567367244077    5.17959383566721    8.09063745909412
H         1.75760349436701    3.63047229938395    7.44556304387110
C        -0.69287761865607    8.49956665778260    1.89172708586650
H        -1.66540487691232    8.06272268421719    1.69422017385988
H        -0.68004219185073    8.95168699311910    2.87653951622321
H        -0.44260305942762    9.21757701715288    1.11998548372830
C         2.01484476572633    8.15968330232428    2.13713735947328
H         2.13534128324644    8.83067206641583    1.29501877974451
H         2.85696867321091    7.48002965045779    2.20417599555481
H         1.90173593502219    8.69861550120327    3.06900793761848

