109
CSD_code = FABTOR | q = 0 | S = 0 | Stoichiometry = C48H50N6NiOP2S | MND = 4
Ni        2.22686453732483    2.70261226100944    4.96921890076846
S         6.45581464784356   -0.19161150380001    6.41918872929812
P         3.66894004723686    4.25010139666994    4.59997074122582
P         1.11266060955279    0.96320600507040    5.54785720059102
O         3.98642847207063    1.57669317238830    5.86410516544203
N         3.15396262013422    1.21861418221443    2.53990977080064
N         1.24831144679040    4.16169897455043    7.38666792888851
N         4.50458806188503    7.18993518317549   -0.56916094135951
N         3.96917715471332    8.57919339547351    8.74888732863647
N        -1.46793934516697    1.14840590422434   10.96548912763395
N        -2.96240275635494   -1.85524691836963    2.15785541177852
C         2.71612954915459    1.84402599444103    3.40555814714314
C         1.63255341607617    3.59553605065763    6.45989225477744
C         5.19849779036599    2.05708842598446    5.42841965508152
C         5.22632300704541    3.30652720796142    4.80135990904685
C         6.43312919298480    3.83683279015197    4.36093282390931
C         7.62580974253005    3.15251730540680    4.51891656134995
C         7.59188472296918    1.91137409335162    5.14064216790385
C         6.39954559846860    1.37405935236011    5.59357611956952
C         4.79001477971826   -0.70988884447189    6.11524707343558
C         4.51892931549396   -2.06941333299606    6.12906853425087
C         3.22843112555525   -2.54020067808307    5.94697356118444
C         2.21253387847794   -1.61381727481690    5.76169906964700
C         2.46939320231934   -0.25100221598161    5.73815469048978
C         3.77780426230882    0.21817385510010    5.90490230692124
C         8.92691211121156    3.72225612075532    4.04336110062237
C         2.92727625507948   -4.00747882408310    5.95174983943790
C         3.91201601772107    5.16518639365181    3.05486647990893
C         3.36930469871516    4.68088129933248    1.86860754004958
C         3.55097800921966    5.34525240936156    0.67667473510761
C         4.28863143606332    6.53773487403011    0.61594292327429
C         4.80902986882030    7.03357488339088    1.82299304917059
C         4.62131914552698    6.36410600933041    3.01128299429207
C         5.04819522406030    8.52602839759661   -0.57284200594040
C         3.96319238558372    6.66826601962900   -1.79912614917663
C         3.86811214928629    5.55522662709043    5.84199699123234
C         2.95921508632868    6.61052210188450    5.81091413016769
C         2.98548734046314    7.60062659653792    6.76385435037897
C         3.92010183144695    7.57161237580213    7.81155625490815
C         4.81836860509487    6.49614363708675    7.84173446502919
C         4.78710273388726    5.50679919848204    6.88115681069548
C         2.85333412981457    9.49040973239034    8.85834976045205
C         4.80793673032862    8.42409263338393    9.91309055070843
C         0.36265414120031    0.91752649512171    7.19769286409679
C         0.98350144405055    0.38589823510183    8.31986760494784
C         0.38650519877792    0.46512039123239    9.56071268414491
C        -0.85411419697663    1.09375388873421    9.73481816090950
C        -1.46532369806639    1.63929063554186    8.59408851052485
C        -0.86388288802147    1.55767651905473    7.36097540227209
C        -0.73830316581452    0.74143537504223   12.14209592565135
C        -2.58278588403614    2.04704698312821   11.15595939038877
C        -0.12918707721124    0.10809866552479    4.54652679215655
C        -1.01879199306153   -0.81056671975330    5.10014057979164
C        -1.95501125796752   -1.44880646927819    4.31817367170475
C        -2.05163029755918   -1.19335308774980    2.94000012152846
C        -1.16910412407739   -0.24514959434027    2.39941290451434
C        -0.23480007178266    0.38789440626575    3.18774815722423
C        -3.09814751507868   -1.51940282426962    0.76198101948134
C        -4.00235720887380   -2.64396755612081    2.77252398207653
H         6.42598040278833    4.80238720002053    3.87710565542655
H         8.50116317239341    1.34816768731420    5.28839323229927
H         5.33763461070905   -2.75398524712397    6.29279625030441
H         1.19701106310554   -1.95374751493966    5.62138445666273
H         9.61307265724902    3.84901823820652    4.87983475474778
H         8.77380244505849    4.68684983961161    3.56714306208485
H         9.39498871648511    3.04848053127525    3.32745206776413
H         3.81878963228308   -4.58671936435365    6.17641956320126
H         2.54851215934107   -4.31359939356311    4.97751145445147
H         2.16308209661538   -4.23548724767889    6.69312029324579
H         2.79396014928570    3.76570604994796    1.88450800625651
H         3.10200727907593    4.93263471600127   -0.21150704224923
H         5.37230905234193    7.95266844465132    1.83771888716019
H         5.02331440565207    6.78550755345647    3.92296638985215
H         4.47963947984445    9.19209593818623    0.08438675664519
H         5.00895898689775    8.93136645155898   -1.58102471965267
H         6.09343778035792    8.52540565791952   -0.24829515320753
H         4.25310081078217    5.62366006489019   -1.92717640371912
H         4.36658024003127    7.23128518553852   -2.63814926465521
H         2.86885780876926    6.73509167335261   -1.83108202311132
H         2.21710435740887    6.64153734089878    5.02300308752556
H         2.26077116474913    8.39502910517876    6.69725624215384
H         5.54620194195001    6.41047317066410    8.63199375261789
H         5.48684566039121    4.68453153758270    6.94820711465095
H         3.01494691858574   10.15974773890371    9.70038189174386
H         1.90453973627259    8.96369891071197    9.01133290344762
H         2.77288801653517   10.10176447956716    7.95670551919600
H         4.51624146696759    7.56330023933319   10.52735993243117
H         4.74346718374507    9.32187628138256   10.52450172468540
H         5.84981205139202    8.30208442844253    9.61149703005000
H         1.94863992468930   -0.09445048638281    8.22984088745466
H         0.91094174457837    0.04238977851757   10.40209820362506
H        -2.41330117836480    2.14559049378444    8.66930996039244
H        -1.34290868732262    2.00272292068105    6.49800900852863
H        -0.43560781775594   -0.30370598633300   12.05386699848863
H        -1.38443594137502    0.82654515445153   13.01336324520854
H         0.15614740329642    1.35334511438558   12.31181068516892
H        -2.33191835567471    3.07774539989059   10.88104127878974
H        -2.88355855728048    2.03347398517927   12.20114811831300
H        -3.43796575772979    1.72370590952006   10.55790362777968
H        -0.98630527419611   -1.01847721347892    6.16131989866009
H        -2.61885664882238   -2.15432154050079    4.79091336967575
H        -1.21408883179688    0.01280352293134    1.35445350594293
H         0.42932513145611    1.11799527260364    2.74535619414026
H        -3.46703599662084   -0.49693742180889    0.61603674377344
H        -3.79757374675515   -2.20715909209866    0.29173393124456
H        -2.13735867354969   -1.62007980421053    0.25345146796266
H        -4.59037521275225   -2.05622906668474    3.48627537151924
H        -3.57712969922022   -3.50448252677421    3.29638762702105
H        -4.67517551558258   -3.01865472109961    2.00492062411033

