45
CSD_code = FABWIO | q = 0 | S = 0 | Stoichiometry = C20H18N2O4W | MND = 6
W        -1.32494423786980    3.23623820240249    7.90505152870459
O         0.07630970486068    2.74225888379073    8.72798168464182
O        -2.43594441349718    3.80949016748397    9.46683985092870
O        -0.62125854140411    3.69890880476529    6.15500721297821
O        -2.34883129160261    1.97472555024647    7.41235163532771
N        -0.39586668777395    5.50282354408046    8.19451147502304
N        -2.80931757256609    4.93717406051718    7.15355134374420
C        -2.80684511812729    4.95715833631632   10.00406820402598
C        -4.11978412857476    5.15214377948622   10.46102664131475
C        -4.51122858544062    6.37244602735683   10.97124861578138
C        -3.61376555554107    7.42710002243216   11.04633907070762
C        -2.31047225327789    7.24700032766184   10.61720616793523
C        -1.89425434795660    6.03207859201291   10.09642023245654
C        -0.48079958107265    5.79303535964156    9.64248826372607
C         1.02870032277773    5.38310428823552    7.83156469664923
C         1.28772609565875    5.12722620400567    6.36912176212017
C         2.38318502786062    5.71553912547309    5.75110396046221
C         2.70523629780443    5.43651825693712    4.43505446612714
C         1.92297843481903    4.54784677736426    3.71489511215184
C         0.82248848033128    3.95904559782841    4.30267379934474
C         0.48215245889426    4.23176786697477    5.63475720051142
C        -1.07072053522204    6.55988064059196    7.43175843681028
C        -2.54014701548598    6.23523227717711    7.33980219497774
C        -3.54462791014592    7.19327609077369    7.41200155034727
C        -4.86255981124150    6.78496881826450    7.30905951210718
C        -5.13620846513601    5.43629871474487    7.12274448965727
C        -4.07903489176663    4.54527807504086    7.04856905159675
H        -4.80589479141248    4.32042128937944   10.40081369876078
H        -5.52553818148542    6.50543697726739   11.31720520069420
H        -3.92438678841152    8.37867962953643   11.44888765068379
H        -1.60239658616335    8.06132977024441   10.69437508642759
H         0.13576092083723    6.67532234881872    9.88318527370110
H        -0.07435679697857    4.91700673108940   10.16919118158591
H         1.57263712261939    6.29190464030133    8.13962176479038
H         1.41592325754819    4.52660834561124    8.40255820226134
H         3.00067473976823    6.39881463395239    6.31810394180964
H         3.56342551590939    5.90434444502512    3.97815272738308
H         2.17183623887679    4.31646420836811    2.68996401492702
H         0.19879925682768    3.26378394943819    3.76057138881632
H        -0.65382110161080    6.57392650709883    6.41504822281338
H        -0.91851058215314    7.55209172642888    7.88230499942905
H        -3.29344760032947    8.23140974968843    7.56193987583965
H        -5.66334648584313    7.50539605662881    7.37596267791573
H        -6.15107826770997    5.08317902482038    7.03892936545336
H        -4.21724574958965    3.47751557469874    6.90518656654942

