47
CSD_code = FABZEN | q = 0 | S = 0 | Stoichiometry = C18H22N2O4W | MND = 6
W         6.69136723274740   23.88393143322230    6.57441414286913
O         5.30487258172875   24.23352219719772    5.65722275781116
O         6.55571343186127   24.12530038105456    8.25321520192894
O         6.48435894244379   21.95382540878006    6.51409042928323
O         7.67570487605408   25.50820523410560    6.11796685316097
N         8.98960658976806   23.11962231746702    7.00099106281784
N         7.89695225594734   23.27758087557895    4.41376111376901
C         8.87901560568205   26.05775836865010    6.08586775407798
C         9.12312850758219   27.22470868279918    5.34703688786861
H         8.28580979984053   27.70640573363568    4.86357610496984
C        10.39916054704922   27.74550731483304    5.25691265783179
H        10.56808707935252   28.64647186930492    4.68623291843197
C        11.46103352615230   27.11916349092034    5.88911026990969
H        12.45785784602776   27.52399460740644    5.81134303927311
C        11.23293058926174   25.97686940716649    6.63917960373507
H        12.05612098384939   25.50159044938449    7.15527598205430
C         9.96048452572638   25.44145531580784    6.75152358094450
C         9.66963962591995   24.26907110513637    7.64572830281524
H         8.99732009413766   24.61379066504939    8.44605413780983
H        10.61416104118974   23.92558048035716    8.10013246785105
C         8.83824806891994   22.09746801590107    8.06821457644515
H         9.81918099961083   21.89929502301682    8.53042285173254
H         8.17125998333913   22.53912815117199    8.82356025789925
C         8.24041160759433   20.79280680043204    7.61853614315574
C         8.82257916134630   19.58009306599153    7.95498101447102
H         9.75499930131271   19.57576869216864    8.50300907941232
C         8.22245539712191   18.38036369244579    7.61225841494155
H         8.68843554298442   17.44635779589287    7.88473732014370
C         7.01673837606762   18.38993018022771    6.92911152680108
H         6.53784186305312   17.45773017270722    6.66912692589418
C         6.42376241818000   19.58495181656745    6.57425764332114
H         5.48382690805113   19.60985809024986    6.04344357183399
C         7.02208281424591   20.80851684337097    6.90812489353061
C         9.77389838121256   22.58762664499176    5.87437952473764
H         9.59575915764025   21.50810104273781    5.81597957298303
H        10.85045091958247   22.74554720743144    6.03403832688603
C         9.36214316304744   23.24623441624959    4.54695544129780
H         9.74284450879724   24.27122863530344    4.52282753702105
H         9.82505941777396   22.69501726309838    3.71320028436586
C         7.46845244255201   24.32692988922001    3.47600989143776
H         6.38146734877655   24.41311831022387    3.53979245534605
H         7.76593527699670   24.08158468460698    2.44679117269424
H         7.90188134019698   25.28962003149459    3.74411602162445
C         7.40893613698723   21.99986048428600    3.87709368632533
H         6.31820816440450   21.99954130926878    3.90573024536670
H         7.77258148989368   21.15848863882909    4.46622038428472
H         7.74363412798941   21.86487776425656    2.83784596683375

