60
CSD_code = FABZUF | q = 0 | S = 0 | Stoichiometry = C21H33N3O2Zn | MND = 5
Zn        4.68025429129604   -7.29219943409178   11.89843053588990
O         2.02419869297913  -10.28698033659992   10.01063195822236
N         3.93737166722576   -5.42239500841877   13.33135630726840
N         3.91698609113921   -9.21448113221804   10.56484276356207
N         2.53021191468342   -7.34639318804433   12.00226297319615
O         2.05628230895417   -4.51047345789267   14.14929917855251
C         5.39189606629094   -3.41507471562942   13.44834156609579
H         4.90886208410499   -3.05818335322661   12.53235033881006
C         5.75974180817027   -2.22079245150389   14.32726793734993
H         6.49068939392507   -1.60016015826450   13.81473613261963
H         6.19850635267251   -2.56334214437817   15.26211310807916
H         4.89585483816933   -1.60353560604545   14.56082745516040
C         4.36128395247695  -10.28868027933544    9.70013682146365
H         4.74889047857688   -9.83464655584179    8.77899844603274
C         5.28574513948296   -8.36900444160276   13.59141474478016
H         5.96668267740938   -9.18283830109815   13.34091628890466
H         5.82794420349462   -7.71265759641413   14.27343645188651
C         4.40749624684581   -4.34255319163849   14.17453363830327
H         4.93159481542202   -4.79320510444873   15.02730947497787
C         5.48696626095362  -11.12115492335487   10.33132954406653
H         5.15064618071204  -11.45008507486251   11.32032099797901
C         6.44200659092142   -6.35267520097990    9.51196901935185
H         6.52157092338831   -5.72487198896300    8.61836259069728
H         6.58167650185182   -7.38633519453154    9.20401957214858
H         7.26088857797854   -6.08545628765935   10.17755362757779
C         4.09633698119385   -8.95904206444020   14.33880665497994
H         4.42544386762970   -9.51451416016812   15.22352319062585
H         3.53427469694074   -9.64636056126746   13.70744623075303
H         3.41409948091251   -8.17874520548313   14.67401326955749
C         0.46967746533554   -6.49141057080234   12.87266655161528
H        -0.02546120146505   -5.74176958955351   13.46905807744088
C         2.64920122009966   -9.27754228719004   10.66370233577967
C         3.05289728696883  -11.07853193049387    9.42588895536957
H         2.83712698767263  -11.20569119820833    8.36366190483893
H         3.04703220313932  -12.05620151452731    9.91855625907787
C         0.46393872807296   -8.45037517570348   11.50609178317436
H        -0.03567942493497   -9.26669091855896   11.00929601982855
C         3.09052374510558   -3.65629203171823   14.62741434951058
H         2.99763140409890   -3.56545099486328   15.71092458599977
H         2.95658114646907   -2.67233057534451   14.16598082642333
C         2.66639768939190   -5.45331640800706   13.39105616273125
C        -0.23673672913345   -7.50787242796530   12.24491278618469
H        -1.31037521175928   -7.56841032172605   12.33616359556273
C         5.08784051885089   -6.16093057317361   10.18853476828786
H         4.30808740262939   -6.40548686256563    9.46500086433342
H         4.96525502461188   -5.10161932762517   10.41834431991079
C         1.85242733585541   -6.45276865579026   12.73006667979788
C         6.65194259504052   -4.19065229149285   13.07653388134223
H         7.30649571195483   -3.57408380815767   12.46551089353889
H         6.39140498813604   -5.08821359805538   12.52267788054146
H         7.19120060872035   -4.48303138699878   13.97488020067922
C         5.81242368211095  -12.34106803644767    9.47079877201478
H         6.64990735532655  -12.88162174078959    9.90513717329885
H         6.09172136127138  -12.02888025406632    8.46658141573988
H         4.97183639389098  -13.02601645581506    9.39441751411269
C         1.84680600405556   -8.33253489684942   11.41248904592998
C         6.73598528517282  -10.25985190375776   10.49206699904386
H         7.49361569260991  -10.79638275471219   11.05800150644562
H         6.49327042509411   -9.33664382986145   11.01154633195498
H         7.14792121979986  -10.01159056080865    9.51608674058612

