56
CSD_code = FABZEP | q = 0 | S = 0 | Stoichiometry = C28H24NOPPd | MND = 4
Pd        6.12733235978328   -0.75154655968632    3.41640096414874
P         6.43671163739490    1.30169903232351    2.64200107032584
O         5.92104720384035   -2.42551009547386    4.61296364026525
N         4.24220758625375   -0.28795021365342    4.21591061697241
C         4.98647950126716    2.39796698761409    2.79236690189714
C         5.02157697506804    3.62484778684700    2.13563611378571
C         4.02654152365465    4.56806252789790    2.30368509631771
C         2.97400206234661    4.29581906512495    3.16480803094829
C         2.92020504314612    3.08440064145748    3.81629923226180
C         3.90273938850886    2.09346554883011    3.64266189792742
C         3.65165093351606    0.85550175767041    4.34701327779892
C         3.77165798133993   -1.42350767083593    4.85569118427752
C         2.45398653501129   -1.57747849867496    5.31076242010395
C         2.04667492012981   -2.73820580135828    5.92033155736590
C         2.95532287580846   -3.78299460120095    6.10831046613239
C         4.24460392682691   -3.67474214757159    5.66368472902940
C         4.70445129258802   -2.50412912744508    5.00802290162919
C         7.85227270525868   -1.51562104620047    2.59366337554957
C         7.01632124288305   -2.38478811036550    1.75918859615381
C         6.53558955797595   -2.04509757770793    0.55318492230860
C         7.10128444711789    1.67801719181080    0.99785906513370
C         6.23795759233414    1.63586131124764   -0.09575060012962
C         6.73049011952458    1.79401604138117   -1.37686916261537
C         8.09001721219980    1.97728099279666   -1.57898971672809
C         8.95564012831223    1.99303360792946   -0.49773730251608
C         8.46739576288721    1.83629027761126    0.78747023664934
C         7.55627387556260    2.13894352638406    3.82133042038737
C         7.86143446317948    1.45285105780422    4.99534806221290
C         8.66214233193179    2.04170440268783    5.95753723629152
C         9.16456586451513    3.31677648626363    5.75384904866537
C         8.86290620809519    4.00322718913486    4.58850148735370
C         8.05748885793068    3.42200382973141    3.62596485564669
H         5.84411567103454    3.83820573266661    1.46755635282194
H         4.07572424663069    5.50893140430769    1.77685374218790
H         2.19543608182757    5.02736313668414    3.32131323153955
H         2.08848974738761    2.87853029079890    4.47565418640497
H         2.80190085846853    0.92554040739216    5.02981905315457
H         1.72701715507804   -0.79789079663290    5.13040969189899
H         1.02142343142821   -2.84982664773078    6.23932955393375
H         2.62774468168015   -4.69191270699302    6.59264628322900
H         4.95027829536435   -4.48348002206843    5.78262595874823
H         8.46596356258972   -0.81513975511659    2.01766228034019
H         8.44386223708958   -2.05844468481196    3.33689807131596
H         6.76044127437360   -3.35905122624769    2.17599728634182
H         5.89383714185035   -2.70245600621202   -0.00970098431515
H         6.81914652635970   -1.11697522781046    0.07618401573877
H         5.18038152696497    1.47670561325011    0.07203636504266
H         6.05713696697509    1.76654638638941   -2.22089422527721
H         8.47491428027584    2.09819243827035   -2.58056889032175
H        10.01618003592752    2.12192485191196   -0.65665464792641
H         9.14270584664298    1.83690592973433    1.63223469859281
H         7.46746720347781    0.43641107938923    5.13946996324542
H         8.89742202871703    1.50574431924133    6.86498100594415
H         9.79288279227563    3.77625854027226    6.50236940453052
H         9.25614225136955    4.99676592929713    4.42985326738767
H         7.82631404023483    3.96315320187220    2.71992370992941

