55
CSD_code = FACBIV | q = 0 | S = 0 | Stoichiometry = C25H23FeNO5 | MND = 7
Fe        5.30088574795510    3.99278911631907    2.40977116575708
O         6.05247395803448    4.08401886832745    5.22516408222815
O         3.31393402076394    6.14093069813058    2.36742439282629
O         3.06012161842870    2.25641222002271    3.36291499962368
O         3.48363734562575    0.64254443588862   -1.87643858059299
O         8.60031646112856    3.50979086958043    2.47924423686627
N         3.72459224151905    1.95963510967104    1.30791076892689
C         5.69904027816920    3.97793545594046    4.13240642763425
C         4.14159624452911    5.33884774640430    2.33245994391368
C         3.92733480104713    2.65661894384929    2.42517950377781
C         4.45603527526263    2.32020353792645    0.09045234301822
C         3.44245915916719    2.79458895439848   -0.92576266723665
C         2.92845609154670    4.07832647388109   -0.86848928772059
C         1.95025548133235    4.49602415878200   -1.75482976730921
C         1.47306007141038    3.61401052632987   -2.70498098814588
C         1.96527571872745    2.32139351697226   -2.77358907605677
C         2.94775271273846    1.89960050933111   -1.88659806768259
C         2.95326860073476   -0.32438833257211   -2.74779322777170
C         5.47961030304202    3.36605184533978    0.48445401913164
C         6.57926671723136    2.84256077268473    1.28286142376583
C         7.52198216611993    3.80825782228816    1.71703020428417
C         7.32220315446030    5.21159942852081    1.69515372788986
C         8.38191086762227    5.73821273349519    2.49890893163739
C         9.10158499102992    4.68369626168268    2.94306584095792
C         3.02151042416898    2.86474876094109    4.64156783181812
C         1.66752975394065    2.55437675034663    5.26087368475979
C         2.69303372916884    0.99181280010463    1.15457192109959
C         1.36506565438592    1.39459971207460    1.11094498620721
C         0.37025938423389    0.45774336647608    0.89957977216087
C         0.69643281849223   -0.87736691228099    0.72793513257451
C         2.02121524269994   -1.27716352330938    0.77493060882460
C         3.02147236570181   -0.34550300482810    0.98799425094552
H         4.93521479911642    1.41251837273559   -0.30031212408938
H         3.30038989358265    4.74972545862849   -0.11040129439809
H         1.56116599119034    5.50080567263488   -1.69754177525175
H         0.70738269051263    3.92425548454980   -3.40051051443610
H         1.57176358405673    1.64930533567072   -3.51962365659747
H         3.49333679262276   -1.24394388237910   -2.52734502047571
H         3.11290378752377   -0.05576498413438   -3.79697872534291
H         1.88534381679712   -0.48150577951471   -2.56622495109703
H         5.73906360479195    4.02127704881644   -0.34786426651659
H         6.82496521401733    1.78937887346290    1.34760276309509
H         6.81730502407397    5.77759798147944    0.93152159689218
H         8.57018981725616    6.77324975872188    2.70213806771765
H         9.97353977729381    4.61899109701651    3.56332822583614
H         3.82908659505236    2.45490857623571    5.25888480319911
H         3.17002961781579    3.94702770128149    4.54089261556225
H         1.61658524868653    2.97334645781619    6.26119739123559
H         0.87307207091683    2.98133240955290    4.65483771949055
H         1.52226965079175    1.47871090793587    5.31510960048380
H         1.12402435924920    2.43982334980607    1.23202687926457
H        -0.66216978028521    0.77223080991787    0.85960473815253
H        -0.08212665687141   -1.60614263125650    0.55655495482722
H         2.27678429303048   -2.31833879781495    0.64304896887140
H         4.05640640836392   -0.65039884389167    1.02343546547022

