111
CSD_code = FACCES | q = 0 | S = 0 | Stoichiometry = C34H64FeO8P4 | MND = 6
Fe        5.50478745149840    1.58153721329496    3.78409768611336
P         4.78159065890803    1.09960240488808    1.87068740742463
P         6.38363913635671    3.28390249138511    2.91211485809269
P         6.21144692563207    1.71924167129106    5.76097465243590
P         3.67199064158579    2.32734215415481    4.54953040287394
O         3.17290556251534    1.04612624164488    1.69436766830408
O         5.30086549555826   -0.28548005231560    1.19703401932668
O         7.93456022540718    3.17098972898020    2.39560501660506
O         6.39440558973030    4.70889417700703    3.68206275155950
O         7.32008965601884    2.86590600675471    6.14431414416191
O         6.94326175105636    0.36750624658013    6.26581629700263
O         3.58172892071510    3.85517099782973    3.84796268537213
O         2.11620415987714    1.90146578655307    4.39225915188448
C         2.56659489023498    0.29245550221396    0.65610636561449
C         3.05604178642819   -1.15757281781646    0.66841908734970
C         4.54946089619536   -1.10695526962599    0.31627326123827
C         2.91339527814497   -1.77155933285997    2.07536439850053
C         2.29594798925883   -2.02026723207738   -0.35378741072518
C         8.66895645507543    4.30073220895508    1.95584961497100
C         8.62530159952660    5.47059600643848    2.95260833166592
C         7.13998761253930    5.80215026267661    3.17488321956691
C         9.29751165814439    6.70932774581158    2.33539135790772
C         9.27315705193644    5.00823573299184    4.26676771433490
C         8.10383708873174    2.76686764392828    7.31790172447343
C         8.83236643068196    1.41705209053356    7.43664287609085
C         7.73513222668867    0.34037335718715    7.44160739224069
C         9.73591346099439    1.18945533570917    6.21293220598062
C         9.59158955364416    1.40224740903984    8.77346255043215
C         2.48672550906484    4.72792511783049    4.03758561620910
C         1.15616746611440    4.06390702137093    3.65924802058079
C         1.03923039631335    2.81080823244629    4.54116205186416
C         1.17566182830742    3.60439544068279    2.19014922261278
C        -0.02520037960267    5.02219834595699    3.89676701643666
C         5.28460596516301    2.36925616731698    0.57604208960635
C         5.49171094584288    3.68314477098524    1.30578390003973
C         4.88420034376198    2.01885240932016    7.03902774268122
C         3.81244021355846    2.84430795188180    6.35093731737305
C         3.90932709564328   -0.70313373357911    5.23647033033396
C         4.21055966694789    0.39813059523530    4.77951191430512
C         1.57126004688278   -1.53843422078262    2.75782424188086
C         2.17554702516854   -1.45768693370002   -1.76742039412587
C        10.79825252424814    6.58225687679677    2.09552186634332
C         9.36050030504388    6.06756051610694    5.35987545903664
C        10.97056194656875    2.08017701640401    6.13638920169763
C        10.36978670509959    0.12273124424888    9.06205705488893
C         1.28301890460931    4.71001305608251    1.14609031790108
C        -0.36139080050825    5.35230011478822    5.34856212476185
H         2.78489582977628    0.75231639796526   -0.31619386514115
H         1.49051876356660    0.34738150073558    0.83790603203959
H         4.99394073187688   -2.10436965020318    0.39970513956113
H         4.68625891140277   -0.74718183257219   -0.71115867361212
H         3.10276447105595   -2.84468442646797    1.99165123661876
H         3.67832408073835   -1.34876279645276    2.73268824224885
H         2.79567077391334   -2.99054363270202   -0.40473681447310
H         1.28935280164689   -2.19115976963186    0.03078195492833
H         8.30031064493935    4.63921507200269    0.97838437732465
H         9.69424244146366    3.93964688773415    1.82992325160257
H         7.03237234456783    6.60047260068852    3.91500802104259
H         6.70372482381687    6.15570267430987    2.23175544390935
H         8.80866410058602    6.92549229427037    1.38141704455076
H         9.11329170644063    7.56447445749753    2.98854168860592
H        10.27541380364384    4.63617049123799    4.04419421868272
H         8.68229293647495    4.16878000057646    4.63855741638287
H         7.48074242975823    2.91545799878882    8.21034968936468
H         8.81968220067171    3.59236912418528    7.26726276673941
H         8.17127558833212   -0.66206680407770    7.46261429559216
H         7.09904577908620    0.46444390675880    8.32759454073279
H        10.04819003693996    0.14342789963653    6.20007926349663
H         9.12650881039380    1.35358772241785    5.32005307446518
H        10.27985220167384    2.24945595367473    8.78787320793163
H         8.87050210062485    1.56005395043158    9.58009321407665
H         2.68079762452652    5.60732964902857    3.41433402649655
H         2.44747411466632    5.05750754202314    5.08346537391223
H         0.96641366331977    3.11058836782844    5.59245771038558
H         0.13948637492975    2.24246151030863    4.27913700470001
H         2.01951680263026    2.92412762711285    2.07376485045396
H         0.26229769897520    3.03254757748473    2.00332538505609
H         0.19819520287643    5.95730286003111    3.37953995357517
H        -0.91271965627640    4.58848901569187    3.43016937463503
H         6.22988260614178    2.02362271613437    0.14790977197173
H         4.54185911096114    2.45825637864746   -0.22347991966855
H         4.53314275447277    4.11626694869934    1.59205847865054
H         6.04076860727656    4.40245135153315    0.68969587186287
H         4.49279273184940    1.04150246552465    7.32733096167347
H         5.27235326802048    2.53536992397856    7.92335751225633
H         4.10509232387651    3.89882532989566    6.35071125588307
H         2.84690013295159    2.73653782291179    6.85616762425397
H         1.54301170688802   -2.11932144145100    3.67535582359044
H         0.73130403387436   -1.83777143471396    2.13265497287175
H         1.46825310916786   -0.49335786105409    3.03458846837616
H         1.68353931898231   -2.18997816914905   -2.40392195585763
H         3.15010993103201   -1.24390704945047   -2.19835595968011
H         1.57968684110564   -0.54898826252790   -1.78167464119778
H        11.17280734530317    7.49980095518389    1.64698276733692
H        11.02002304884611    5.76154632451356    1.41912260836792
H        11.33322310756241    6.41938095835644    3.02624541932296
H         9.88157769117465    5.65769642255053    6.22327558075757
H         8.37076896292954    6.37505038279291    5.68570575718581
H         9.90946425113126    6.94578237040830    5.02868658773354
H        11.48782260438573    1.89436346158267    5.19783901115694
H        11.66364187913025    1.87485184368327    6.94856006807571
H        10.70095809671178    3.13185626851894    6.16718033168605
H        10.89806837441557    0.22537154604850   10.00743603681324
H        11.10160983351932   -0.07742343415694    8.28548494378868
H         9.70418042536677   -0.73210884338626    9.13950727053478
H         1.32798778573658    4.26350057974518    0.15475022191481
H         2.18380198730227    5.30153035118239    1.28717939789259
H         0.42265867765379    5.37457769601961    1.17516073156966
H        -1.12971027450540    6.12248323825605    5.37109600559984
H         0.50616259282897    5.73029189951987    5.88259258754119
H        -0.74637886627786    4.48355138922286    5.87532343667376

