47
CSD_code = FACFEW | q = 0 | S = 0 | Stoichiometry = C17H25Cl2NSiZr | MND = 12
C         5.39074392834068    1.71777992799259    7.22860759874048
C         5.76128861640526    0.35287435255323    7.37443040974826
H         5.24472065823038   -0.38172422803843    7.98326276111224
C         6.79547866320153    0.06600249051457    6.45684055628646
H         7.21769620809334   -0.91243266718067    6.26004058708902
C         7.10564331265729    1.25400202589165    5.76543185067934
H         7.80373864608942    1.34431997630006    4.94182768172884
C         6.27102710154890    2.27853044381686    6.25921842741467
H         6.19808395246753    3.27923745574487    5.84963796635175
C         6.06048220518136    3.03727908126398    9.55511080991663
C         6.65298666901018    2.09455005089164   10.45398282214902
C         8.02671967698868    2.41204765385159   10.60852422149526
C         8.31016979185456    3.53914884190543    9.78699610780830
C         7.11757230303667    3.90088148240691    9.11072376921209
C         5.94287277432587    0.97818160149165   11.17057936871634
H         6.39051133834841    0.81336402926684   12.15009235919059
H         6.01559784503517    0.03930852899624   10.60854494340781
H         4.89451953736107    1.22387060963123   11.31674356891588
C         9.01831948432769    1.75174088499100   11.52353248497645
H         9.97169665653317    1.60789668041270   11.01044770370474
H         8.66168962014186    0.77633716465770   11.84823554778914
H         9.19883263901713    2.37121348650434   12.40495441116514
C         9.61250430160562    4.28554958606712    9.75687133222845
H         9.67522328090360    4.96767986218469   10.60817459336854
H         9.70802523140133    4.86739592857454    8.84173510925356
H        10.45611267204841    3.59709025566370    9.81309838573222
C         7.02654072007418    5.04954212304276    8.14242216983159
H         7.23429817604918    5.99398901448686    8.64936427320788
H         6.03371701725515    5.10805542859394    7.70554832004489
H         7.76744015465942    4.92947288952721    7.34364223658775
C         3.10336367240316    1.66177677382255    9.39133906415459
H         2.78113003205828    2.11134077257662   10.32561715972840
H         3.38857439279043    0.63527750362363    9.59164395198682
H         2.23989944912315    1.63614120729161    8.73278008847790
C         3.08495903786890    4.17288831146980    6.69872784818927
H         2.02095088085672    4.03566033342836    6.92227642124989
H         3.41204793395506    3.36285212762266    6.05339253142649
H         3.20019668368841    5.12137820841854    6.16816082033507
C         3.51951973463956    5.26399722869582    8.79137837880963
H         3.60598440368744    6.22108148680756    8.27135706041188
H         4.18532971791848    5.26518421866951    9.64974909281814
H         2.48788401871809    5.16119174487128    9.14601068766805
Cl        9.62476979909988    2.32727177203871    7.23700546087974
Cl        8.47853321290663   -0.29517899012262    9.07845318347176
N         3.88901475439423    4.18880805779132    7.89878890443221
Si        4.48450710564788    2.69777518628281    8.56103954741198
Zr        7.60538198804898    1.71166909470209    8.24395742069454

