72
CSD_code = FACJAW | q = 0 | S = 0 | Stoichiometry = C23H44Cl2P2Pt | MND = 4
Pt        5.67704311941846    2.24083811421666    3.95312435435037
Cl        7.74194592419013    2.15550203434903    2.86350396815986
Cl        3.53215982663850    2.28792409978248    4.92521959549859
P         5.44438424065082   -0.04804120681394    4.14563603827248
P         5.72247874505809    4.51793106116447    3.91053983525278
C         5.83288803070106   -0.94627543479806    5.57886021173670
C         5.26360857676995   -2.18503168120483    5.80780998461706
H         5.56028327634112   -2.69682950429069    6.70644808292061
C         4.32757667163610   -2.81902147859015    4.99759255517454
C         3.89765035031618   -2.23956363264244    3.81048598874787
H         3.16584516796439   -2.78812180302016    3.23586307359700
C         4.29864213930824   -1.02155164056183    3.29083601162419
C         6.87308008433878   -0.34741954437504    6.52247658476023
C         6.41233274898167    1.04168593903101    6.98071657345163
H         6.36851697974350    1.73963058612574    6.13303698320726
H         7.10864690066044    1.44869489999437    7.71118759185563
H         5.42327802070144    0.98668487318006    7.43155908888208
C         8.19733074297231   -0.22135321662033    5.75948192944880
H         8.08371914865807    0.42595365200335    4.89038484175666
H         8.53372925493102   -1.19828606909977    5.41721549965258
H         8.96550560009180    0.20363341488582    6.40228563864339
C         7.11207394733269   -1.20092526745637    7.77254272819213
H         7.84789043572976   -0.70780869838606    8.40447362769219
H         7.50331965745767   -2.18238766044929    7.51438410306190
H         6.19788532355034   -1.31656590477749    8.35069967258980
C         3.73536743732769   -4.17356717764522    5.37799954712467
C         2.21226470252846   -4.03214566632221    5.51740685498952
H         1.97299442930846   -3.28183190495197    6.26803464424848
H         1.77487425373895   -4.98002610911947    5.82395325619793
H         1.74840554935518   -3.73417997678852    4.58142481649081
C         4.06880666845539   -5.19510353221605    4.28023917478683
H         3.64580600231046   -4.90856842520893    3.32162401191970
H         3.67143971076332   -6.17239366644157    4.54607891856552
H         5.14713350111712   -5.28132157842125    4.16302314948212
C         4.27504398815105   -4.72185767073633    6.70266389970285
H         5.35056436737309   -4.87804646795185    6.65741413360159
H         3.80885638077034   -5.68356699559082    6.90800056572501
H         4.04088355662172   -4.05613837175739    7.53019277218382
C         3.71379627982105   -0.55482303460480    1.96325692149305
C         4.42871959145565    0.68889342771598    1.43458037174880
H         4.25820537965931    1.54225110470722    2.10148719369893
H         4.03900706148154    0.95546626322066    0.45383466149888
H         5.50044333725974    0.50682328670947    1.33811005688134
C         2.23620818379215   -0.20993720991278    2.19048751664274
H         2.15113008145293    0.56169538751478    2.95283323731720
H         1.67526766981493   -1.07995001101012    2.52302682483851
H         1.78906314791284    0.15766476002523    1.26934176302166
C         3.84893089266293   -1.65781441930763    0.90395326693078
H         3.50291500402226   -1.28816042296398   -0.05886729625487
H         3.26016140678310   -2.53650418679987    1.15175033299844
H         4.89012688569257   -1.95782657827184    0.80448980430560
C         4.90940252333361    5.20217874140632    2.41100942098270
H         3.85616604911345    4.91074024868231    2.47352886705373
H         4.96886178724154    6.29384589940314    2.42509089585063
C         5.53447756975972    4.64350700227057    1.13736056179584
H         4.93064135986866    4.89999691061500    0.26929447251160
H         5.60988499457146    3.55790493776814    1.20004014520975
H         6.53575364296546    5.04099210486052    0.98873919794844
C         4.81345190346460    5.30232013340251    5.30622758103730
H         3.77127658121084    4.99292272573708    5.19487287696056
H         5.18222033541647    4.83822886987497    6.22572161826811
C         4.91295436551768    6.81913674875760    5.40109628494551
H         4.29445095302974    7.17148806508725    6.22445388766365
H         4.55984616128399    7.29694082895131    4.49036349232479
H         5.93455171535320    7.14049747556596    5.58949599314508
C         7.38452614960394    5.29704514456687    3.92080028701467
H         7.91317422243161    4.92865588217884    3.03947086131169
H         7.27622888587343    6.38163477463132    3.83635078290197
C         8.15764182614968    4.90041407585078    5.17229514762152
H         9.16645578909921    5.30678433230755    5.14211817105540
H         8.22825053953690    3.81421856206911    5.22330733127842
H         7.66685226143017    5.26041978051601    6.07445715980918

