40
CSD_code = FACLOK | q = 0 | S = 0 | Stoichiometry = C21H17BrRu | MND = 8
Ru        0.00000077913806    2.70741649003657    2.01034530975148
Br        0.00000521280661    2.96583697530601   -0.38719024426412
C         1.25675028340132    1.15653429125947    2.02510796309865
C         0.70049082095673   -0.10196864299138    1.95086033111589
C         2.67670437382019    1.38556993479073    2.18645987148675
C         3.31580673136059    2.43148098794323    1.50737907848892
C         4.66430723303121    2.66754941628681    1.68600142290831
C         5.40130613838068    1.87753498088439    2.55449029672208
C         4.78357502777299    0.83815214548498    3.23376649980378
C         3.43866664992192    0.58836372341653    3.05048374305850
C         0.70646002435877    4.83799812948414    2.68093145152821
C         1.14910347979588    3.85073283793215    3.58597263977524
C        -0.00000679823193    3.21907231393224    4.14969818311878
H         1.28686916924754   -1.00725747795363    1.86206357831533
H         2.75094576521360    3.03528474474543    0.80696630958770
H         5.14522914726488    3.47088204715211    1.14717827992256
H         6.45441515022771    2.06799933033799    2.69900424439225
H         5.35707100523616    0.22025147517578    3.90955422476973
H         2.95486681205478   -0.21431702166394    3.58779296753076
H         1.33642492722054    5.53383729148933    2.14462655956285
H         2.17035753926817    3.69887063720173    3.90828058383085
H        -0.00000788299318    2.56297279028535    5.01115542425225
C        -1.25674747896037    1.15653311247912    2.02510368032612
C        -0.70647204556472    4.83798936188868    2.68092137560525
C        -1.14911655006206    3.85072383982943    3.58596221598981
C        -0.70048678004768   -0.10196921075557    1.95085966138729
C        -2.67670170199023    1.38556930546892    2.18645465242008
H        -1.33643736665597    5.53382458412127    2.14461168923783
H        -2.17037219724459    3.69885637922205    3.90826264011258
H        -1.28686443773287   -1.00725830144046    1.86206146064201
C        -3.31580567000078    2.43147497047977    1.50736716285177
C        -3.43866117224913    0.58837181275701    3.05048908289256
C        -4.66430451118200    2.66754849288453    1.68599568784625
H        -2.75094695263662    3.03527083717945    0.80694578968674
C        -4.78356778449933    0.83816561157912    3.23377808583449
H        -2.95486026893665   -0.21430585688950    3.58780200599018
C        -5.40129999236374    1.87754463417209    2.55449714797163
H        -5.14522784463266    3.47087694243188    1.14716760449160
H        -5.35706153371603    0.22027201195835    3.90957423586143
H        -6.45440730077820    2.06801407209733    2.69901710209640

