65
CSD_code = FADHEY | q = 0 | S = 0 | Stoichiometry = C22H34N4NiO4 | MND = 6
Ni       -0.00002386527977   -0.00002689568135    0.00000263008036
O         0.89446995830040   -1.63313401104507   -0.07929159894818
O         1.43891299609889   -2.02402416858587    2.03353015787864
N         1.34576238217140    0.78831804503928    1.70126349383629
N        -0.96329057434999   -0.50917707919629    2.03076271761054
C         1.41868715086760   -2.32725579226142    0.82869278877280
C         2.10030394765476   -3.64239942410695    0.39146234493379
C         1.56139929923918   -4.76640792858162    1.27854036971968
C         1.83440177737077   -3.94277355874960   -1.07885952501619
C         3.60078809671204   -3.45504697919913    0.63684406673896
C         0.45379811553865    1.31938616695577    2.65234773124870
C        -0.76333130932497    0.63578785662583    2.82606442725401
C        -1.71999361854892    1.14811259043462    3.68588701898453
C        -1.47089115494796    2.31629018892311    4.38985218269094
C        -0.27413584961530    2.98826108725295    4.21931466518585
C         0.68167592327783    2.49702850080912    3.34387703684616
H         1.61595567963872   -0.17555908877761    1.94373954508643
H         3.77914050458829   -3.19703540859883    1.67840943423944
H         2.32656224701898   -4.87067567930439   -1.36334285840278
H         2.09936888291670   -5.69134619301793    1.08135662984126
H         1.60718551394667    3.03548463552319    3.19296404927402
H         1.68358275854392   -4.50324871067575    2.32656044077809
H        -1.88958219927518   -0.90488629233406    2.14875078622506
H         0.50348112044303   -4.93113046487636    1.08314749273996
H        -0.23605287405388   -1.21513386639412    2.21083006164217
H         0.76779314729878   -4.04098970272433   -1.26361271786796
H        -0.08424433132119    3.90143413752090    4.76253231972237
H        -2.66562620743827    0.63612622382355    3.80060271504150
H         4.13579531584434   -4.37412391228509    0.40601763393853
H        -2.21778150729298    2.70338407088951    5.06628541768727
H         2.20623821502061   -3.13923268072652   -1.70827838715790
H         3.99156116467270   -2.65792320701101    0.00720637225231
H         2.16435776660860    1.37251777448837    1.57071603348034
O        -0.89442835967211    1.63313575547623    0.07928292433942
C        -1.41856685024983    2.32730224421950   -0.82871533007554
O        -1.43904211213835    2.02394855526124   -2.03344931127732
C        -2.10033907250378    3.64237254914636   -0.39147192413702
C        -1.56144753060024    4.76641432950414   -1.27852092474862
H        -2.09943862050445    5.69134544369252   -1.08132652649856
H        -1.68361166684026    4.50325934481446   -2.32654376711390
H        -0.50353090802888    4.93113933089701   -1.08311136261793
C        -1.83447337424230    3.94272282719249    1.07886097207249
H        -2.32665505878521    4.87061905514625    1.36334544732006
H        -0.76786629688177    4.04094468184911    1.26363637964303
H        -2.20632032677608    3.13916633042139    1.70826093979364
C        -3.60082848306952    3.45500096541060   -0.63686091382895
H        -3.77916403430143    3.19699657622141   -1.67842892320748
H        -4.13586441260929    4.37406962971291   -0.40604552414954
H        -3.99161085469682    2.65787128109186   -0.00723539999782
N        -1.34575493283139   -0.78834304100329   -1.70129647957354
C        -0.45375724262649   -1.31937890453759   -2.65236589776224
C         0.76335555523922   -0.63574895099769   -2.82604961348036
N         0.96326614406175    0.50920963201075   -2.03072644958767
H         1.88954932561458    0.90494162877750   -2.14869129497591
H         0.23600761181013    1.21515301108801   -2.21078631259664
C         1.72005006531512   -1.14804310042945   -3.68585894794860
C         1.47098948089969   -2.31621801236151   -4.38984632046479
C         0.27424688568368   -2.98821665845014   -4.21934325449195
C        -0.68159343835157   -2.49701679215198   -3.34391717725057
H        -1.60709873881089   -3.03549145122273   -3.19303647309534
H         0.08439117486219   -3.90138604792037   -4.76257866824364
H         2.21790020185746   -2.70329012685781   -5.06627061776346
H         2.66567363670653   -0.63603477846389   -3.80054592265516
H        -1.61597411183853    0.17552241724238   -1.94377111958751
H        -2.16433212804255   -1.37256795894845   -1.57076768235621

