26
CSD_code = FADJUP | q = 0 | S = 0 | Stoichiometry = C10H6F6FeO3 | MND = 8
Fe       -3.14915852769323    3.02015296300714    5.25339983685737
C        -3.34609510994602    1.07540631485778    4.21368908041992
C        -4.61977485223059    1.51876671646820    4.64376891180336
C        -4.59881778202284    1.60385697071000    6.05665495262150
C        -3.31638063242863    1.18629071141883    6.50167313982787
C        -2.55668467753589    0.84278531297309    5.36620986027969
C        -3.69140312597372    4.19276648200389    4.07370393879265
O        -4.09552277335357    4.96950409005964    3.34927336518235
C        -3.45605408767115    4.25844976809560    6.45211100260002
O        -3.70419343918431    5.07288951881460    7.20449930647095
C        -1.24990049954076    3.73883485903861    5.04320798709918
O        -1.34409972761785    5.14953991040148    5.06556130342419
C        -0.33455502882708    3.30566249031442    6.19232382620364
C        -0.59926990953393    3.34051349336402    3.71842594652367
F         0.15637904804633    2.06693685992600    6.06395263828103
F        -1.00083601004185    3.31403777749784    7.36444327599837
F         0.71970438065058    4.12124820550595    6.35802822306120
F         0.62314300223210    3.87763682905765    3.54707118312867
F        -0.46351498506676    2.01637462065941    3.55813134434225
F        -1.34094218581192    3.76117788206296    2.68190692817592
H        -3.07604204721376    0.80695379012584    3.20734552617491
H        -5.48138609402118    1.67065724864497    4.01465667987884
H        -5.44597265052995    1.81391742651767    6.68899086797124
H        -3.02275766673341    1.03654849958333    7.52595098104820
H        -1.57290229395246    0.40563485096802    5.37068603039196
H        -0.46806232399813    5.56585640792316    4.98703386344098

