62
CSD_code = FADNUT | q = 0 | S = 0 | Stoichiometry = C38H18AgClO4 | MND = 6
Ag        6.81626350915079    1.30833432606652    6.00199356198312
Cl        8.92037716339072    0.95704308149569    7.38760545865791
O        10.10087847395968    0.81240904728011    8.11658618044305
O         9.14449676559388    0.77183779153684    5.98217853722400
O         7.92257545675710    0.01956990540766    7.79545889438916
O         8.36538268491151    2.27327284255034    7.54779047949155
C         1.53884674248290    5.39192155879597    5.93576389058713
C         2.05194306793185    4.71968166228874    4.86874085551589
C         3.44993809101251    4.52586620579663    4.71459753883338
C         4.00790046980963    3.88907883781517    3.59036273373474
C         5.39941234903546    3.72642723907194    3.49822106721067
C         6.02084163884476    3.25479828379568    2.31258863302463
C         7.34301263413488    2.93145619789557    2.28901774671403
C         8.13108308903691    3.06306990885356    3.45163060134368
C         7.59618828270623    3.60788456693837    4.58819193273570
C         6.22535989468560    4.01045433688514    4.63192704278679
C         5.67288567743372    4.65735418928325    5.75205736678244
C         4.30449914118009    4.97326615241646    5.77093086326684
C         3.73395851326049    5.70158118497986    6.84680028224700
C         2.39199156384495    5.91449696491927    6.92523078029462
C         6.53490060273743    4.99592150138410    6.90328385904701
C         6.30483677084272    4.43995685524359    8.15847131165710
C         7.13366075492438    4.73816151110522    9.22296166247384
C         8.19692923702161    5.60765187931512    9.05298227611021
C         8.42412090791946    6.18197849787978    7.81391562116458
C         7.60199294738803    5.87738036308210    6.74520141223808
C         3.11823288776559    3.34149548323267    2.54476100289862
C         2.24131434559591    4.19497845248363    1.87894522593506
C         1.33129808023231    3.72286026635903    0.95082805339532
C         1.27904642584205    2.36876399156043    0.66609515117927
C         2.17057113564773    1.50951564808406    1.27923339713819
C         3.09294751166620    1.97192243804257    2.21544603278938
C         2.83446072910525    2.30913302958380    7.47667371043869
C         4.11335945426353    2.15623021235513    7.40994965000557
C         4.76363589157252    1.77262129970828    6.31501162666034
C         3.93454018008901    1.52182639673992    5.20929507572825
C         2.52893091072140    1.65059750209696    5.32361544109913
C         1.97717941560811    2.06126152934796    6.51249231603791
C         5.89772102672370    0.46808128967882    4.28826774726873
C         4.63382196514089    1.01646994998699    4.02256353362886
C         4.13449286236011    1.04185601564340    2.68811847399224
C         4.82543370660434    0.32735323401252    1.71351796654848
C         5.95623537304313   -0.19535805649841    2.10114488271982
C         6.48383224600628   -0.17134344293204    3.28372374369662
H         0.47217162681396    5.53214271506123    6.02673478299683
H         1.38429861575762    4.32661225232855    4.11825940569182
H         5.42180368284357    3.16361821075360    1.41875528405961
H         7.79959676882872    2.57684604277866    1.37738210770219
H         9.17458458009264    2.78663586726320    3.42255305306214
H         8.23410118931069    3.83832493773552    5.43299179861812
H         4.39325654003908    6.09029836466803    7.60784075965059
H         1.97286688580284    6.47323444036769    7.74850409889030
H         5.47027791339390    3.76141404955134    8.29544997583003
H         6.95262016154091    4.28773719965028   10.18714333908187
H         8.84856879392088    5.83553272854033    9.88312810360207
H         9.24948944185186    6.86541951592613    7.67695506105965
H         7.77555757807640    6.32917699781572    5.77845562913001
H         2.29517637154721    5.25322167391105    2.08877699944368
H         0.66676132535066    4.41124399373860    0.45108563735859
H         0.56551560258383    1.98735388446005   -0.04797817359296
H         2.16666407838560    0.45776378009139    1.03554557587381
H         1.91105826599231    1.41960321340303    4.47084294020868

