44
CSD_code = FADNEG | q = 0 | S = 0 | Stoichiometry = C16H22AuN3S2 | MND = 2
Au        1.70389861607862    9.49101172041523   13.98837839675112
C         5.95705090295167   11.43561043091061   11.20378688114421
H         5.39306025246090   11.69022781898074   10.29780036596260
H         6.24639051245602   10.38386584300607   11.13144711553730
C         7.13469446860812   12.37920283087187   11.42227770988734
H         7.89988463357995   11.88794364078461   12.02486304972873
H         7.58224219325336   12.70365883694375   10.48524672596160
C         6.50502719148226   13.52641812096879   12.21090572461975
H         5.96005539190614   14.18778324478411   11.53585222624782
H         7.23584466357128   14.11442281083401   12.76211857953580
C         5.52911824781992   12.80452069804772   13.13444605580915
H         6.01196671922987   12.48452511043406   14.06603844680270
H         4.65561262239226   13.40508862031808   13.40001859335424
C         4.11009365293103   10.84509546477291   12.69292307105303
C         0.32815531902583    8.00968814320028   13.84339887679095
C        -0.07456082990182    8.38370844138097   10.56119113621929
H         0.43559051438142    8.48451796881043    9.60826040686404
H        -0.14531239874695    9.36800620677353   11.01765762149415
H        -1.07892563696209    8.00082299442862   10.38932653100572
C         0.72244781600518    7.45085572564210   11.46647353556683
H         0.83041778559512    6.46643526190201   11.00507217040330
H         1.71448492866785    7.87380438201287   11.63866427959158
C        -0.58690798945353    8.14612782348127   16.13633704047552
H         0.38056562227564    8.60437798429106   16.35628843086097
H        -0.76704411671399    7.33203270933393   16.84368664359364
C        -1.69090116521217    9.19479896918263   16.23498602443049
H        -1.73932440769834    9.58608127866922   17.24689806440878
H        -2.65608332208448    8.76352994106395   15.97852624106942
H        -1.48260613164167   10.01612775855423   15.55361237183680
C        -1.33437237030549    6.59843170406492   14.32486006369053
C        -0.95586485346385    6.40142319140492   12.98513858697494
C        -1.58850331968529    5.45431149608095   12.19254294382917
H        -1.30402975399146    5.29785721042115   11.16426448079815
C        -2.60153892851883    4.71890869318931   12.77534752655908
H        -3.11824464632937    3.97422683600899   12.18974464161914
C        -2.97606938213863    4.91430540848938   14.10467869358593
H        -3.77376497446947    4.31635926103516   14.51781382835523
C        -2.35215053475980    5.85329997391045   14.90236628541024
H        -2.64703802508725    5.99820144102895   15.92967872769244
N         5.12424476229148   11.64356834940887   12.37033183467283
N         0.06989689422209    7.28569984267359   12.74200389974234
N        -0.51348582164111    7.59154462354584   14.80903536155202
S         3.25564737665411   11.21047523434397   14.14241061421104
S         3.71713752096410    9.55419595359618   11.70790019430266

