38
CSD_code = FADPOP | q = 0 | S = 0 | Stoichiometry = C19H16O2Ti | MND = 12
Ti       -0.04156655779232    5.33102322173243   10.39795689857253
O         1.19716475479936    8.61230315448547    8.80724204251256
O         0.26483912216137    7.05659239060929   10.10526504990769
C         1.06746041762498    7.45343008825257    9.13969203693836
C         1.80360283658101    6.31322085069423    8.54831315322737
C         1.50456464014895    5.09678585728811    9.03606259517864
C         2.30348378723158    3.92143730783355    8.69223504765984
C         1.74236061296979    2.65436811306216    8.50161836917216
C         2.53837461316549    1.56197774690841    8.21161436331898
C         3.91437018443263    1.69892321290741    8.12584672987835
C         4.48907244040261    2.94254437478410    8.33040501849773
C         3.69651038709761    4.03932579858514    8.60780687129418
C         0.95449700861873    5.95325860642464   12.44135231202727
C         1.83656799819082    5.06706711215027   11.79313177352336
C         1.20265052559189    3.79706289853131   11.71826560468142
C        -0.05986433622905    3.91090700914468   12.31350692634350
C        -0.23640270116238    5.25504254573265   12.72191898190466
C        -2.28241935939050    4.55759540553038   10.52158920068032
C        -1.56463797393744    3.73418646882599    9.63353797240545
C        -1.18400620377718    4.52739151651347    8.52090894001219
C        -1.68986273385356    5.83087350091486    8.72911702188084
C        -2.34231682515336    5.85492693012595    9.97218186224160
H         2.54439455764342    6.52935151828772    7.78240013027889
H         0.66976145112117    2.52682135633360    8.56875769260405
H         2.08344808718684    0.59423415566231    8.05583178157667
H         4.53342605414562    0.84227296885680    7.90568561191528
H         5.56161576572949    3.05750196873885    8.27219978212553
H         4.15189163375627    5.00465415239450    8.77551692854924
H         1.17353465526827    6.97727808418205   12.71865813350411
H         2.86820508001272    5.27374533080529   11.53787536542534
H         1.67542122223647    2.87829978621484   11.39353218642217
H        -0.73360447851591    3.08989814511955   12.52266681719922
H        -1.06704717159919    5.63784818044589   13.30226640031285
H        -2.81486565187850    4.22641466553962   11.40354274689022
H        -1.47079924641728    2.65672439866482    9.71170876299189
H        -0.76628582402959    4.16864304359621    7.58804982082537
H        -1.62681950072069    6.65283786709788    8.02665615941586
H        -2.88471927165943    6.69623026702110   10.38378290810260

