85
CSD_code = FADVUC | q = 0 | S = 0 | Stoichiometry = C40H30FeN12S2 | MND = 6
Fe        0.00052791974939    0.00045147264989   -0.00072521290179
S        -0.28267400626506    3.12328624816918   -3.19456007453026
N         0.44159101163349    0.99359806399082    1.63895522851684
N         1.84770419550590   -0.64040883643269    0.24690410962973
N         2.64715153174861   -1.54611909610656   -0.29979338360788
N         3.46693594923085   -1.02432417096481    1.67020530276956
N         5.59356590158666   -2.87790552283097    1.30459409352459
N         0.50408818604788    1.47438173073110   -1.12352330649446
C        -0.32553705661085    1.88434871355329    2.25824854859185
H        -1.25153374019323    2.12657341487242    1.75827686695993
C         0.01500201191513    2.45869178423101    3.47035222702966
H        -0.64673860346719    3.17466258083570    3.93104632009822
C         1.20954904627648    2.09787150796513    4.08196775116672
H         1.49968356277803    2.52406780757334    5.02984282598122
C         2.02263868213846    1.17546143771914    3.45065454057309
H         2.95771406561950    0.86455882831157    3.88851659062591
C         1.61041039554449    0.64474174109606    2.23109691318740
C         2.33377657268659   -0.31248597695389    1.44207461318790
C         3.62189402213746   -1.79147207220462    0.54941969864501
C         4.68518202718418   -2.75071459310278    0.34007083073491
C         4.71992324608591   -3.50530728497870   -0.83598942243096
H         3.95784916227439   -3.35551662749916   -1.58257497539996
C         5.74086628963604   -4.42277656925194   -0.99375260773315
H         5.80237881440159   -5.02597262613329   -1.88783398003453
C         6.68511191280498   -4.55839342927864    0.01503608862059
H         7.49539085047729   -5.26519026274888   -0.07015342150110
C         6.56069126840550   -3.75822705135385    1.14140996641583
H         7.26822895775674   -3.81982160692992    1.95778769283787
C         4.24424679401054   -1.05689995494117    2.85356653447595
C         3.80856482036803   -1.81895554666261    3.92705452051308
H         2.88862527209792   -2.37961140942326    3.85084629086486
C         4.56193230248004   -1.84506284021132    5.08657549268882
H         4.22322560232222   -2.44054384575264    5.92118762895837
C         5.74185135597630   -1.12008689335373    5.18984891364332
C         6.15707733450576   -0.35779651130038    4.10184908354423
H         7.07230904451879    0.21191458217617    4.17099552674408
C         5.41730130276895   -0.31984375045789    2.93688107838738
H         5.74271130457484    0.27000370544644    2.09332598373951
C         6.56488473473658   -1.15149540113750    6.44076312052706
H         6.07236600534291   -1.73017655013937    7.21739956440113
H         6.73543866412308   -0.14169804926789    6.81112824297987
H         7.53759072251765   -1.59879645808447    6.23950887520995
C         0.16180340291630    2.16979185913954   -2.00699563657495
N        -0.44021697866160   -0.99219577875683   -1.64060420311053
C         0.32700120066756   -1.88276835157574   -2.26005339858392
H         1.25258513892703   -2.12567006915479   -1.75964785280090
C        -0.01292616754012   -2.45609277873514   -3.47279781719766
H         0.64888419828579   -3.17193704487166   -3.93358846577930
C        -1.20693016727545   -2.09439205009905   -4.08495554717590
H        -1.49656140969377   -2.51975445171937   -5.03335493119495
C        -2.02019743031430   -1.17229464108070   -3.45341776452553
H        -2.95490799942483   -0.86081143421342   -3.89164800849639
C        -1.60863683996814   -0.64263007556525   -2.23318081007567
C        -2.33241403302972    0.31389063010571   -1.44365984640910
N        -1.84665535983944    0.64095822913615   -0.24812040766127
N        -0.50306944468742   -1.47344757875173    1.12209461831595
C        -0.16039338386483   -2.16950725509799    2.00489089770235
S         0.28504938801032   -3.12488192945798    3.19058227358081
N        -2.64685371121080    1.54538537528065    0.29955269902176
C        -3.62184529773834    1.79076270747025   -0.54936286568120
N        -3.46617347298814    1.02502711026248   -1.67102957231153
C        -4.24389552180056    1.05772994109659   -2.85410338267991
C        -3.80801357252827    1.81878095350148   -3.92822917175839
H        -2.88752461291340    2.37864250292402   -3.85278205679227
C        -4.56190361103463    1.84491825938210   -5.08741548572883
H        -4.22304344203777    2.43960546522990   -5.92253331935998
C        -5.74256694290137    1.12101159634356   -5.18971364099500
C        -6.15801394144262    0.35976746551187   -4.10106666463831
H        -7.07382475412266   -0.20910508481324   -4.16943924806114
C        -5.41770292721551    0.32176424774785   -2.93644703600338
H        -5.74327293623691   -0.26729111874916   -2.09240009274637
C        -6.56621246755782    1.15253896106413   -6.44022240202566
H        -6.07295343533744    1.72924018486669   -7.21786156194630
H        -6.73908344508031    0.14263770623662   -6.80921114755803
H        -7.53787046937866    1.60212810034900   -6.23897546583984
C        -4.68601011153127    2.74873909994247   -0.33865516716932
N        -5.59302124190525    2.87852109974024   -1.30410217138713
C        -6.56097323018654    3.75766110779304   -1.13943710627265
C        -6.68761939998104    4.55401572895390   -0.01062538901052
C        -5.74476487492485    4.41572673108636    0.99908797490597
C        -4.72298277541161    3.49946249806189    0.83981583893161
H        -3.96196213351060    3.34765176363266    1.58706559205041
H        -5.80804777385369    5.01586719428852    1.89510276280151
H        -7.49850789019503    5.25997178526368    0.07569026667449
H        -7.26726755891461    3.82157065644329   -1.95672996758690

