24
CSD_code = FADVAI | q = 0 | S = 0 | Stoichiometry = C6H12HgO4S | MND = 2
Hg        1.80475098326278   -1.56632240330871   13.38688712169527
S         2.78704474517897   -1.48899615884847   11.03221675964749
O         0.29999933572748   -0.67751858293370   11.24748433430766
O         1.34975483228421   -3.40071783615880    9.03786081702501
H         2.27822498081495   -3.32755140126481    9.30585663238911
O        -1.46132196364004   -3.83840365647673    9.24044142114325
H        -0.83515124104876   -4.39188742096854    8.75760412956519
O        -2.97212517305434   -1.51198006755103    9.90728508420034
H        -3.31889492220885   -2.33827685952598    9.54607372558324
C         1.12897186661780   -1.34412437408545   10.32052395149048
H         1.22832628338542   -0.75729888562664    9.39478851069391
C         0.57253768254494   -2.73439044676108    9.99127120383355
H         0.52801314752904   -3.31633625407641   10.93550676518256
C        -0.84914864085771   -2.58846582142065    9.43864921716616
H        -0.79516109473150   -2.04030588667731    8.48326405624069
C        -1.70458151536064   -1.79090881992636   10.43201456931730
H        -1.79163152811402   -2.38777303075095   11.35645961942723
C        -1.00665548457854   -0.46586266573977   10.75074010621828
H        -0.97544438791044    0.14962543304366    9.84258015482946
H        -1.54997309784015    0.07145373049140   11.52804746084644
C         0.53493669731447   -1.33046482290566   15.23196635988863
H        -0.49938623981977   -1.26242272911232   14.89979052968622
H         0.81614785872189   -0.41419366347141   15.74536267989838
H         0.65096687578004   -2.17437737593957   15.90652478972022

