91
CSD_code = FADVUE | q = 0 | S = 0 | Stoichiometry = C48H34N2O6Zn | MND = 6
C        12.61319372819815    4.91481245843945    9.09192231713701
H        12.51415988395262    5.38038306415086    8.10473403889328
H        13.41871166441504    4.18239421598456    9.06385896269302
H        12.85329095104503    5.68743416842067    9.83137485080434
C        10.28403505587634    4.88236166438319    9.55338372527742
C        10.12726089323470    6.22633941756340    9.34559507410204
H        10.96653178540217    6.84814889410704    9.07408789986541
C         8.86340273529726    6.82920411179597    9.47751719095276
H         8.77050852485287    7.89089957865020    9.30740586164830
C         7.77911283432457    6.07855960218002    9.81060006904302
H         6.80567800884128    6.53824607387406    9.90752910158576
C         7.88962430305327    4.68308656769302   10.03791288506963
C         9.16224776654824    4.04459293518729    9.91473944618558
C         6.71213100172824    3.97610962734253   10.35176334849279
H         5.80544386191430    4.58708175766110   10.40512930678539
C         5.38932221008241    2.15621732280359   10.94618161927550
C         4.44457208690080    2.83396666239799   11.71968219838000
H         4.65379711374468    3.83981340035260   12.05026995806740
C         3.26791908334919    2.22157359470335   12.10629941093919
H         2.55796754111160    2.76448481677756   12.71148874568426
C         2.99896879563410    0.91942239019700   11.72431824168580
H         2.07540496920084    0.44282509428592   12.01297568548978
C         3.93268611479376    0.21640544217065   10.98431669430192
H         3.74674950090418   -0.80754323085534   10.69406153655325
C         5.12770598799598    0.81517786119333   10.62075681750596
C         6.31885166982579   -1.18110155064217   10.20585251869140
C         6.44673977991273   -2.07469832634530    9.12675722572521
H         6.26718377399748   -1.69423202827340    8.13279974813870
C         6.81767629051169   -3.36817934568176    9.34685404829885
H         6.93120524551028   -4.05176274370478    8.51853880615383
C         7.06478341774296   -3.83527440112064   10.65477560696468
C         7.48151793049867   -5.15899357855899   10.90198627475515
H         7.59498355712910   -5.82878867107833   10.06179853834993
C         7.74231456931631   -5.58629430236319   12.17329121779147
H         8.06492502201458   -6.60087273725967   12.35379656799846
C         7.59423643673808   -4.70555568178290   13.25459269504215
H         7.80610431486777   -5.05319673774445   14.25485251995913
C         7.18757736271313   -3.41716331783260   13.04958900636609
H         7.07547349270922   -2.74335617496732   13.88567809542208
C         6.90789817221156   -2.94592761182263   11.74917846783756
C         6.53282626230146   -1.59880595353291   11.50634411162765
C         6.45962443812494   -0.60568215901816   12.60285988456050
C         5.41925283742785   -0.62223208608440   13.56712027953835
C         4.43077514500083   -1.62904614344255   13.58303146309603
H         4.48791209792717   -2.42975421480924   12.86080078656777
C         3.41561043571500   -1.59798870640555   14.49730219073273
H         2.66492022223846   -2.37446335809184   14.49925086692908
C         3.33667189288371   -0.56078591493433   15.43816816521474
H         2.52712765999759   -0.55181883777718   16.15281998679366
C         4.27721334641965    0.43029377012940   15.44562109554665
H         4.22296402204188    1.23485808535732   16.16471309703422
C         5.33577119712276    0.43144839268640   14.51460652364248
C         6.29586822181658    1.46485861569045   14.48781171815638
H         6.21771146792985    2.26599795338496   15.20760201370798
C         7.30332376810859    1.45787846966986   13.56828553369612
H         8.04145603415386    2.24311361176474   13.51875031200429
C         7.38394896708502    0.41978040956280   12.62519924974495
C         9.14877645027197   -0.59866206097354   11.45023725072936
C         9.61684065246372   -1.35863171687455   12.50989696204790
H         9.32683229680163   -1.09387757176287   13.51632095287624
C        10.44523969446209   -2.44072152990978   12.27611799945754
H        10.79948999187301   -3.03511117697100   13.10359045884926
C        10.83048739869957   -2.73811137272055   10.98100995289112
H        11.49797597449581   -3.56532597464018   10.79304019451331
C        10.37555357492368   -1.97711558426844    9.92172567967756
H        10.72118148156732   -2.21289919138588    8.92752399269409
C         9.50215167819530   -0.90641136835527   10.12541313351906
C         8.92247217316231   -0.52570044354356    7.89502257798462
H         9.32253889927313   -1.51903456824940    7.67531317221899
C         8.42468583573761    0.15364802055694    6.76422032732875
C         8.53650350300594   -0.51305783614592    5.51868570294536
H         8.97534572322093   -1.50103255129068    5.50295985352348
C         8.10846790839222    0.07068339028000    4.36459286021032
H         8.19163221149218   -0.44144105499823    3.41852641376688
C         7.57077181914796    1.36205598374975    4.40427364992332
H         7.24731958037570    1.84707968949485    3.49595768473716
C         7.43310958334526    2.05335741081286    5.58510590529467
C         7.82139335743502    1.45145381527258    6.83454236854934
C         6.93194144971076    4.22867696440111    6.52027385582208
H         6.25762469307410    3.95271425485901    7.33363210075496
H         6.60813821582425    5.17379906268781    6.08166827708484
H         7.94060495024021    4.34194990030360    6.92387975678120
N         6.60514057367547    2.69442322743687   10.55748610474813
N         8.94576737976834   -0.11333379122724    9.13056323245518
O        11.45965525279696    4.19969103304115    9.44610958690352
O         9.36376258724625    2.80435203491433   10.11781165483852
O         6.07077973337548    0.13712174581221    9.88065960515246
O         8.36978537784573    0.51185585915993   11.66542616744324
O         7.60453296921904    2.05426524898228    7.93954091530612
O         6.88548335731288    3.30049094134062    5.45948550223818
Zn        8.03093821719202    1.56079699375195    9.71035254422774

