41
CSD_code = FADYOY | q = 0 | S = 0 | Stoichiometry = C20H16N2S2Zn | MND = 4
Zn        5.25280305914165    2.71591912747469    5.51130019672608
S         6.91501674836157    1.20510770784186    6.17531004255451
S         3.64236374475402    4.36934679567848    5.90524373248141
N         4.50505395641122    1.09189131916396    4.16882915579495
N         5.83469730577265    3.90248258307997    3.70899330450130
C         5.28759655515864    0.04282089951171    4.29285968304062
C         5.57970418364516   -0.80513993350143    3.20437925708156
C         5.06735334110775   -0.51415343706138    1.97229141898249
C         4.20733228885547    0.59216103094989    1.82218267745817
C         3.62744108125314    0.95987064543802    0.59279590973896
C         2.78023893903199    2.03037275465259    0.52082396698555
C         2.46520046356802    2.76410446117736    1.67540219796101
C         3.01929487772830    2.44149331163394    2.88337132358871
C         3.92313553292348    1.36568337027018    2.97957790722404
C         5.88758800079761   -0.21098437378315    5.63135182871666
C         5.05178376518889    4.95468677460854    3.61904047573043
C         4.64195994635269    5.47761625112186    2.37495955520657
C         5.03630017183777    4.85623173824917    1.22448992113585
C         5.89428651198533    3.74060565895689    1.29754052290282
C         6.35668801202823    3.04502323834195    0.16387385290847
C         7.20824292122235    1.98465802707873    0.30327933294890
C         7.64504333426780    1.58885077892159    1.57721128143174
C         7.20733121853672    2.23526738090519    2.70015170526095
C         6.30160445674453    3.30791280976203    2.58810708103490
C         4.58124264123552    5.57116332294263    4.88979094553440
H         6.22506177288381   -1.65571477832680    3.35868240582733
H         5.30478245033312   -1.12167545293959    1.11055558256802
H         3.86076192946790    0.37483025196801   -0.28499264066421
H         2.33713508942686    2.31084069389027   -0.42312902515907
H         1.77399987682717    3.59050738530176    1.60454522838363
H         2.77587923424897    2.99167386149245    3.78023873040011
H         6.54334440608370   -1.08018788298865    5.61344535716847
H         5.10633478684516   -0.35476287194522    6.38055718846665
H         4.00176668688796    6.34565981033012    2.35443392622491
H         4.70733731721366    5.20942133168954    0.25751840555974
H         6.02967233762285    3.37171101228520   -0.81259300156258
H         7.56050881318841    1.45177830010316   -0.56736368683139
H         8.33781113173512    0.76555415155128    1.66668386753318
H         7.54552469682938    1.94704911475709    3.68447065347304
H         3.90896575383840    6.40639717095005    4.69958020657789
H         5.42971065864014    5.91082565844498    5.48730952510894

