30
CSD_code = FADZIT | q = 0 | S = 0 | Stoichiometry = C10H10Br2N5S2V | MND = 6
V         0.00010700902300   -0.00001935722624    2.85639444636050
Br       -2.31024427975714   -0.82602299931360    2.55782064424598
N        -0.42018021492424    1.21175105923777    3.96709437207118
S        -0.47012605985933    1.36080567627495    5.49646386228218
N        -0.00003574006899   -0.00000841883488    6.18155725289981
C        -0.20614662369942   -1.63577951966090    0.06146231989639
C         0.06180943192962   -2.60937221852570   -0.88706217650415
C         1.13136169707565   -3.46504024368360   -0.67936916406372
C         1.88844054426406   -3.30304837441060    0.46916523214362
C         1.54862546561515   -2.29515520830996    1.35748609943494
N         0.52103166566474   -1.47588038157643    1.16140551563127
H        -1.04760325855571   -0.96504582421713   -0.07120208620271
H        -0.56195468933276   -2.69371410778800   -1.76275204924136
H         1.36703192426191   -4.23929921180299   -1.39419657164700
H         2.73073278935341   -3.94315776348065    0.67830879209712
H         2.12824284575069   -2.13740216721837    2.25975205455269
Br        2.31045369602659    0.82647767361356    2.55753863087702
N         0.42006541033841   -1.21187312082714    3.96714571870541
N        -0.52106561499040    1.47581909595414    1.16140787766201
S         0.47000227891381   -1.36087246681976    5.49651499372985
C         0.20614248288583    1.63575737848969    0.06148475588517
C        -1.54865224960822    2.29510984756747    1.35748550159643
C        -0.06180119878350    2.60936187863856   -0.88703426181884
H         1.04759820034174    0.96502228139850   -0.07118079270774
C        -1.88844320070096    3.30302790501425    0.46917647423704
H        -2.12826113136000    2.13738109042688    2.25976094586837
C        -1.13135387165863    3.46502820164057   -0.67935005398629
H         0.56196273907620    2.69370253657959   -1.76272495098692
H        -2.73072596075805    3.94315186710935    0.67832104554576
H        -1.36701408646432    4.23929489175066   -1.39417442856475

