69
CSD_code = FAFBOE | q = 0 | S = 0 | Stoichiometry = C24H36N6O2Pd | MND = 4
Pd        3.69862934501828    8.17948811035893    4.61510382177911
O         2.44972567628351    9.54890876632946    3.80098867152510
N         1.36237775186127    9.60913284004795    4.57045755537968
N         1.18905924014702    8.87470263597779    5.58133114309223
N         2.13892167743544    8.02176106658004    5.84207983445249
C         1.96680443635781    7.16233495823623    6.92851586284489
C         1.46569471295463    7.57292649548914    8.17220916234500
C         1.31989050548355    6.61974924840493    9.18324673670660
C         1.69403890042141    5.30253880876582    8.95701092719775
H         1.57885732926814    4.57569247809126    9.74837764063802
C         2.21447145217047    4.90956951846337    7.73519100058436
H         2.50413202727453    3.88121375032665    7.57569322514580
C         2.34146935713277    5.83254720294866    6.72141132415670
H         2.72840529596158    5.55636024473724    5.74556790370192
C         1.12133071701245    9.01008676787347    8.42853023377605
H         1.37723052082546    9.29152665579772    9.44735129274752
H         0.05467837784955    9.18094267839594    8.28331571461861
H         1.66280150922615    9.66026648360554    7.74522286879498
C         0.76170354592406    7.00793465513379   10.52143021131168
H        -0.18552411087203    7.53264889294257   10.40859772577441
H         1.45041980765235    7.66669250757748   11.05106024025392
H         0.59873927370572    6.12565812183059   11.13536596288858
C         0.35400624644104   10.58401002504799    4.16953371001609
C        -0.80913890657629   10.54193132204804    5.15204666122872
H        -1.57187860398421   11.24903222495300    4.83629743125239
H        -0.47681979084521   10.80719576052919    6.15164004159646
H        -1.24334419112603    9.54692375254849    5.18845059634707
C         1.02636176891765   11.95877517442413    4.16890939281282
H         0.33192169034282   12.71632810231963    3.81677764512393
H         1.89332392438097   11.93865639807797    3.51296012581931
H         1.35264273391445   12.22149374383317    5.17311688576283
C        -0.10218354537086   10.21045780310878    2.75768289984193
H        -0.78677329381766   10.96079176754068    2.37228050590364
H        -0.60486926422062    9.24585005433856    2.76589794814148
H         0.76286738861661   10.14749985524331    2.10165168987084
O         4.94757540897478    6.81014306769451    5.42928851345978
N         6.03493907734037    6.74992394283067    4.65982429861143
N         6.20824018070182    7.48434496819437    3.64893780404642
N         5.25836879011474    8.33726043899217    3.38817391778527
C         5.43046436986981    9.19664083126330    2.30169877292877
C         5.93156036767178    8.78599432235121    1.05801720722024
C         6.07734727843809    9.73912502306272    0.04693303408784
C         5.70319571290487   11.05634448095193    0.27311280833341
H         5.81836070125404   11.78315461390040   -0.51828923990953
C         5.18277551214062   11.44936670740582    1.49492116557892
H         4.89311069629999   12.47772832789012    1.65437333004003
C         5.05579415907026   10.52643574732131    2.50874513848065
H         4.66886781947157   10.80266621551391    3.48457976112884
C         6.63552052032957    9.35087838492534   -1.29123839363175
H         7.58275075202272    8.82617184759439   -1.17839253595414
H         5.94679893182992    8.69209352257841   -1.82082825343254
H         6.79847494639044   10.23312661132020   -1.90521745935258
C         6.27592763847730    7.34882500320632    0.80175011472138
H         6.01998234696955    7.06733584738233   -0.21704635059961
H         7.34258915154461    7.17798729980126    0.94691915211321
H         5.73449796853249    6.69866816063950    1.48511155840027
C         7.04333834193481    5.77509454875020    5.06079471742600
C         8.20647644550796    5.81715680305103    4.07827291775266
H         8.96923516015000    5.11008921759597    4.39405023841840
H         7.87415799803526    5.55183831671712    3.07869376936302
H         8.64065748671870    6.81217310831116    4.04182094804464
C         6.37102109625038    4.40031074041815    5.06149068789726
H         7.06549016950737    3.64279054336420    5.41363512927317
H         5.50407435753435    4.42043455623369    5.71745968085114
H         6.04472138663076    4.13754500037542    4.05730177844272
C         7.49952356112966    6.14873252193824    6.47262483060142
H         8.18413744268996    5.39843855112148    6.85806190561102
H         8.00217867398539    7.11335578426643    6.46435954133268
H         6.63447204380867    6.21169607111119    7.12865491749744

