63
CSD_code = FAFBEU | q = 0 | S = 0 | Stoichiometry = C22H32N6O2Pd | MND = 4
Pd        9.53844354322844    0.00002688017161    7.18241261008797
O        10.87333960086978    1.16502036202449    6.20895756886291
N        12.07088765683063    0.96241492975541    6.75141493089045
N        12.27602578383430    0.15474462847371    7.69382759705695
N        11.24774631049752   -0.52008887564399    8.13456442237912
C        11.52906848897496   -1.38229683461210    9.19196727429280
C        10.64377124640529   -2.42253521738986    9.47787472964979
C        10.90466014560929   -3.29269910795724   10.51536908776178
C        12.05186478244287   -3.16459910366631   11.29170053750414
C        12.93334154890986   -2.13158411052770   10.99726553740067
C        12.68441112353582   -1.24903553769083    9.96597806561144
C        13.17603627865997    1.70891679184183    6.15780305120129
C        12.81913699300367    3.19463304156601    6.23058742416154
C        14.45457288291849    1.41642594698409    6.93233548532139
C        13.29622848466610    1.25429897020487    4.70151062702594
C        12.31694010484711   -4.10404188779526   12.42955550751906
H         9.75688832893489   -2.52967468484492    8.86935865569525
H        10.21059271036863   -4.09461964924067   10.72574279138338
H        13.83111522124086   -2.01453738971525   11.58833876714166
H        13.37616671089100   -0.44971749062812    9.74893557022762
H        11.87862086810558    3.37366273601112    5.71598275199733
H        13.59740047038019    3.78896042649952    5.76026683295425
H        12.71484003831062    3.50886885896026    7.26681997138659
H        15.28009328287846    1.96229429181911    6.48298609157044
H        14.68133706735744    0.35434827178771    6.91195233550949
H        14.35320041282923    1.72596298242309    7.96883983021134
H        13.57653478333060    0.20424253739917    4.65586135443184
H        14.04997577676327    1.84198940360976    4.18509362180438
H        12.34036690510354    1.38174417261370    4.19860565885767
H        11.81881955443456   -3.74943905531854   13.33307640447411
H        13.38243948750164   -4.17176325108687   12.63718895786299
H        11.93703510894771   -5.09889725464260   12.20674208077669
O         8.20350001172322   -1.16482271727883    8.15599047517788
N         7.00598321551778   -0.96230914801760    7.61342314008762
N         6.80087339723097   -0.15464702813135    6.67099467062243
N         7.82913881549371    0.52025205569147    6.23033625565825
C         7.54783939980686    1.38242472374528    5.17289920212818
C         8.43312152952917    2.42267499000957    4.88699389600413
C         8.17226125083123    3.29278382120977    3.84944527152477
C         7.02510505732134    3.16461228676540    3.07305151975950
C         6.14363884082715    2.13158846598285    3.36749080787843
C         6.39253872736427    1.24909817379326    4.39883403483594
H         5.70080312672525    0.44976134640356    4.61586713177555
H         5.24590640961629    2.01447854901669    2.77636818009144
C         6.76007109391964    4.10397263788911    1.93511878748162
H         7.25821006714472    3.74929269352028    1.03163790908368
H         5.69457736512779    4.17169032415021    1.72745174726305
H         7.13998053468764    5.09884087848878    2.15786547085901
H         8.86631106966653    4.09472087504792    3.63908543323024
H         9.31996223318314    2.52987407036089    5.49556205260571
C         5.90083544583715   -1.70892474858415    8.20689684406172
C         6.25796835158192   -3.19458953921138    8.13426822132513
H         7.19845196324045   -3.37345908569728    8.64899805950327
H         5.47973462509431   -3.78900757069202    8.60452137120111
H         6.36243582818615   -3.50886658443206    7.09806416476281
C         4.62239334810590   -1.41665486136480    7.43212160019380
H         3.79690803284651   -1.96272768515421    7.88128942123468
H         4.39539773034777   -0.35462572588548    7.45252903701093
H         4.72403450890035   -1.72611772537843    6.39561817100928
C         5.78036115504722   -1.25427687915386    9.66315752764102
H         5.49994925915975   -0.20425292915181    9.70869899014650
H         5.02656528918091   -1.84200599699222   10.17945826315121
H         6.73614061414252   -1.38160344833367   10.16624620967698

