45
CSD_code = FAFCEV | q = 0 | S = 0 | Stoichiometry = C16H20N6O2Pd | MND = 4
Pd       -1.03945614905825    1.14230963638026    5.58842786143189
O         0.74637256077276    2.12016413996054    5.90943641679153
O        -1.11431900815280    0.05251048246961    7.33848690896370
N         0.91768975564694    2.93830347682425    4.88128736791736
N        -2.24456837110534   -0.63968729884991    7.30075068519636
N         0.08017945896545    3.07892381876393    3.94543692204127
N        -3.02215239990999   -0.66584296442834    6.30480962138859
N        -1.01938450233445    2.38030287691401    4.03058131667594
N        -2.66369325991440    0.03235868123151    5.26199939882507
C        -1.96952922976769    2.59776555161488    3.02805758081675
C        -3.49775484638295   -0.09130335886492    4.14356854698772
C        -1.65054812569202    2.60754535673370    1.66386409393538
C        -2.94695285403209   -0.40992954756440    2.89356474113281
C        -2.68014390715714    2.79836039564736    0.75329566586309
C        -3.79418313996455   -0.46253337810509    1.79711929394899
C        -3.98653323431967    2.99108019116991    1.16369310361236
C        -5.15446521620452   -0.24345112913052    1.92282126762668
C        -4.29103946542906    2.99751336305153    2.51472409284849
C        -5.69801779355409    0.01494498769575    3.16915554677702
C        -3.28724047236941    2.80041229196530    3.43901042052947
C        -4.87288589762304    0.09309753452469    4.27275155126379
C        -0.24470223581011    2.40769693233905    1.18495808577068
C        -1.49697756419526   -0.76889796358050    2.73722633644767
C         2.12946022998027    3.71405381680277    4.86344242656299
C        -2.56792604016701   -1.41787503506938    8.46703237733171
H        -2.44876121474528    2.79469850177392   -0.30267725998829
H        -4.76565269453105    3.13828680236465    0.43110763428604
H        -5.30615665815161    3.15740754489818    2.84431004158678
H        -3.49390228482858    2.80849738526281    4.50452342044735
H        -0.24037567755157    2.04314514489816    0.16013646067211
H         0.28569337866108    1.69935683864013    1.81856182892949
H         0.29970741151643    3.35070043776452    1.21624891825649
H         2.18828914978770    4.31308994287618    5.77365973850781
H         2.11555008464018    4.35661236406894    3.98712102988898
H         2.99176451067050    3.04541613755955    4.83198968241872
H        -5.27532609965346    0.30694267943885    5.25200854108297
H        -3.37841531833054   -0.69317123327501    0.82679267453619
H        -5.79006247474491   -0.28763940862456    1.05126634789303
H        -6.76188774674351    0.16378576043835    3.27981660083564
H        -1.13404726545845   -0.46481949909630    1.75897230286673
H        -1.38417370929388   -1.85120908076499    2.82101313733103
H        -0.87399616552438   -0.30497298870343    3.52115398453606
H        -1.75486357721835   -2.11633272778170    8.67167372213429
H        -3.49247924104560   -1.95652803892957    8.27691718041541
H        -2.68243269959362   -0.75698942132296    9.32830238270903

