20
CSD_code = FAFHID | q = 0 | S = 0 | Stoichiometry = C5H5Cl3N4S2W | MND = 6
W         1.15088854349803    0.61656796266784    2.69689187274299
Cl        3.05433870879200   -0.69702223846345    3.30225011289441
Cl       -0.82317111448245    1.92421041371064    2.33094812193708
Cl       -0.19741849754583   -0.99513664889126    3.55872298950870
S         1.97573326484182    0.70554945821714   -0.39781003840151
S         2.98814019727524    2.81643783477333    1.31429645936300
N         1.29322833687498    0.16179136415565    0.91171071935885
N         2.78660641299417    2.03120996572335   -0.04762219208377
N         2.23058292386362    2.14076751752020    2.49881124617540
N         1.08554836625537    1.33792062925675    4.83531201354371
C         1.38586276936944    0.52008791349048    5.85147805816319
C         1.35401921509029    0.92646055617666    7.17429670831418
C         0.99380371461871    2.23202063497085    7.46992887486227
C         0.68489126271980    3.08224866740122    6.41943717479766
C         0.74468134812096    2.59884992685745    5.12411107068050
H         1.66476439259613   -0.49785345318398    5.59225843063776
H         1.60589384407279    0.22621503241022    7.95431532297869
H         0.95483268985860    2.57742058553961    8.49180485945792
H         0.39803920742982    4.10633871542498    6.59604039977817
H         0.50593441375709    3.23681516224167    4.27881779529042

