65
CSD_code = FAFJUU | q = 0 | S = 0 | Stoichiometry = C29H30IrO2PS2 | MND = 7
Ir        5.34425562402558    3.68540904501482    2.06066498429928
S         6.59151628886249    2.52557634700550    3.87558327129704
S         2.54928231817624    1.74887843452810    2.16372464084461
P         4.82176196731489    1.54361031070197    3.94288035397692
O         1.79587280491998    2.93209784868626    1.79456901850809
O         2.10844268440223    1.02761670018870    3.34574475039911
C         4.24644930555047    2.11060624401530    2.38452690463315
C         3.88804021009304    2.15473452353554    5.37667268358993
C         3.99691754446135    1.53918587924122    6.61605021827558
H         4.60970424882970    0.65520014755367    6.72818939125523
C         3.31676809605061    2.06644681086068    7.69943503514915
H         3.39421840636369    1.58908429930133    8.66544403541651
C         2.53729451127026    3.20123345507879    7.54632866408996
H         2.00243113996784    3.60489099099410    8.39356499151011
C         2.44153667217471    3.81963253059813    6.30925915581369
H         1.83130303696415    4.70308944353723    6.19182376557468
C         3.12071841284258    3.30137624911030    5.22311451255080
H         3.04837265872938    3.76220591352879    4.24590385289203
C         5.03478888010716   -0.24856477111593    4.18175065388988
C         6.26717555836143   -0.82119139246209    3.89044199571311
H         7.09095228798803   -0.18253076103788    3.60202792770070
C         6.42696588835706   -2.19213116241728    3.98736770833873
H         7.38556830329876   -2.63900686027272    3.76849003842209
C         5.35747851715166   -2.98853525184545    4.36368064735988
H         5.48264150172136   -4.05896254029328    4.43776975831074
C         4.12546632355463   -2.41607517448416    4.64324519887587
H         3.29246137237992   -3.04037878144686    4.93136252929945
C         3.95664824250586   -1.04645594782052    4.55318105312495
H         2.99879505330852   -0.58564869543422    4.74452654949885
C         2.46972648377154    0.60797972476350    0.77283358850491
C         1.78095600788487    0.94504003091297   -0.37499167602104
H         1.26080580522366    1.88943180531872   -0.40844974356215
C         1.76705128810043    0.06312219997898   -1.44323430191260
H         1.22887330916083    0.31488071201007   -2.34500987137907
C         2.44356586160304   -1.14262299346900   -1.35105478856072
H         2.43206614212279   -1.83069627784418   -2.18363177241854
C         3.13350031318845   -1.47203493838286   -0.19421837014508
H         3.65832593714888   -2.41318612990847   -0.12463815853555
C         3.14935439959808   -0.59071669353448    0.87307463798576
H         3.67645963052636   -0.82444716775794    1.78617905807572
C         6.63183078468824    5.39241712233928    1.30821300298369
C         5.59224184790372    5.88193526193277    2.14622943671495
C         4.32543809245508    5.57541545481216    1.52385574570089
C         4.59354048203116    4.83505634935686    0.33681215719271
C         6.03240645435093    4.72297135117462    0.20327583024592
C         8.09221855118548    5.64766882466532    1.51067838046174
H         8.69343755926402    4.98504663052611    0.89441257811016
H         8.37151630004718    5.49113743644459    2.55054285097699
H         8.33210612848567    6.67836914132675    1.24407554283880
C         5.79109525832511    6.75765304350003    3.34168408990689
H         5.87939460946959    7.80010038569973    3.02954842928267
H         6.70002908189208    6.48302482517315    3.87184087743358
H         4.95445651055557    6.67810278554638    4.03228611978077
C         2.97207195436723    6.04242933949147    1.94815157245605
H         2.62675480887399    6.82721916803888    1.27329231218752
H         2.98957003103013    6.44196238832394    2.95896980670415
H         2.25851101330837    5.22029789421410    1.90354501849864
C         3.56163359563033    4.44778892165439   -0.67256929227286
H         3.29711878278885    5.31114743705793   -1.28540791189259
H         2.66597094426993    4.09747802148908   -0.16436671197322
H         3.92310624300959    3.65793038041826   -1.32598218019954
C         6.74688924059906    4.17634558096966   -0.99087477819848
H         6.16783876618851    3.38704148288024   -1.46428667603463
H         7.71912158055041    3.77345562442712   -0.71684089968735
H         6.90148834069544    4.97206104159273   -1.72226819382643

