46
CSD_code = FAFSEN | q = 0 | S = 0 | Stoichiometry = C19H18MnN3O4S | MND = 5
Mn       -0.67368815953827    2.83828267651653    1.58384291043092
N        -2.36514299504839    2.39309036740862    2.26074325294274
N        -1.26526464071964    1.70355876523120    0.07298550465878
N         0.16292698646983    1.42597543722259    2.45605509919530
O        -0.35807414576002    3.97790091262641    2.95315201379342
O         0.30276306280355    3.67563679133616    0.38959408191981
O        -3.61425078028762    6.54048401114378    6.52774139349870
O         2.74564644995288    2.59730763924746   -4.39379127229206
S         1.34815822409425   -0.50280689994349    4.03319152519988
C        -2.53541493062543    4.13438963468198    3.91877355599236
C        -1.17827798194432    4.56478216729681    3.74687308523210
C        -0.73753804191125    5.66162159431590    4.53509164631092
H         0.28150809006270    5.99106781568690    4.40113755342618
C        -1.56802317082663    6.28448040104795    5.41755683256157
H        -1.23117375864143    7.12225514504759    6.00769064764923
C        -2.89795629919071    5.84357664236454    5.60107942055102
C        -3.36170326652947    4.78226372267035    4.86437696492759
H        -4.36983917474941    4.41451436687134    4.98159272799035
C        -3.03465472816548    3.03373770809736    3.18732083306678
H        -4.04105560937713    2.69093596198897    3.43337269239802
C        -2.95043120062163    1.16530018840318    1.74337950428617
H        -4.04294444330825    1.16467612613481    1.84155918435635
H        -2.54009953801123    0.33599833959154    2.33333229177993
C        -2.53060974481043    1.00789013491852    0.27899461246248
H        -2.43672035554246   -0.05056477498990    0.01284559734090
H        -3.28650062933027    1.46421917065895   -0.37338631071764
C        -0.70196441651513    1.53640248642252   -1.08263215472645
H        -1.14309050571320    0.83759741913063   -1.79680270091983
C         0.42517986308299    2.29015214369012   -1.53031734112071
C         0.86041621220558    3.39993176608819   -0.75607994001480
C         1.88591369727013    4.20918660020155   -1.27604781773844
H         2.21143342181691    5.05762402660604   -0.69360791715016
C         2.48538795815792    3.90472039873998   -2.47168854429489
H         3.29057500637894    4.50923289945541   -2.85822262238457
C         2.07215478905106    2.79574514577451   -3.22820539545600
C         1.03654492386412    2.00965075362645   -2.76121512503156
H         0.67908239392137    1.15937289509433   -3.32129611512417
C        -4.93291991202308    6.13442622939492    6.79682573366698
H        -5.57238844949513    6.23283486895677    5.91320208709975
H        -5.29399054471907    6.80154292950550    7.57789379306895
H        -4.96873389710613    5.10140101800303    7.15782469529157
C         2.41503150041939    1.47630400831368   -5.17710788456598
H         2.55689469635439    0.54356028847133   -4.62219432780791
H         3.09724651810029    1.49829794107088   -6.02525519819602
H         1.38396759593749    1.53052261436090   -5.54180068705906
C         0.68631993056014    0.62441952152303    3.15202211350709

