77
CSD_code = FAFWUE | q = 0 | S = 0 | Stoichiometry = C17H47Cl3N3OPSi4Zr | MND = 6
Zr        2.37185956087822    3.75922381924207    5.84809571904382
Cl        2.07479174551883    1.78548931373936    7.20172316360202
Cl        0.66859166533416    5.31472722231618    6.40279956545578
Cl        3.95902567104745    5.46613562212141    5.30511219011223
P         2.16840676968260    1.91443109098416    3.86316830467421
Si        4.95122387637502    1.76237600701189    5.15805894284862
Si       -0.66462706406014    2.65544839162240    4.62192412086070
Si        2.43094715691498    3.90358546606228    1.86148339075775
Si        2.78453711530095    0.90225626987060    1.10766892151394
O         2.99681092098611    4.39446322786802    8.02333287338089
N         3.49619794323870    2.47948164482798    4.59364614019203
N         1.03877536876572    2.90098103328219    4.47156679848058
N         2.29319838332594    2.16700768701400    2.22236283622690
C         4.88543059812969   -0.06895328513536    5.72968450109195
C         5.44506978372308    2.76295039956283    6.71850797864063
C         6.32804359897125    1.93563494345429    3.83787530893213
C        -1.12540148192545    2.28371059629413    6.44644335427007
C        -1.65287257788669    4.20265649563281    4.06634153595461
C        -1.28354111932555    1.23665704601975    3.49443931910137
C         1.77486768295617    0.16082558787967    4.19236331724725
C         1.56542107202850    5.23966606185151    2.91291773507850
C         1.53476429936030    4.09473590101026    0.18080699104030
C         4.28625788887935    4.36345539933616    1.85109775307410
C         3.97243304819174    1.55453879848022   -0.24089972897964
C         3.77736956428506   -0.54409762204392    1.86646016860288
C         1.18272369875454    0.22839371029951    0.30848444007379
C         1.99822862926690    4.27218244840859    9.05289445287407
C         1.68333414400774    5.69958411343497    9.53662415685082
C         2.78499772850438    6.54917960948698    8.88788311472129
C         3.80363095195563    5.49531900581756    8.46449483739138
H         5.77638508864292   -0.29954286601938    6.30535741029320
H         4.85331408856366   -0.77304507085496    4.90370097012408
H         4.02763420307641   -0.25147738772677    6.37027294656106
H         4.69727390814565    2.64626998281490    7.50555412808268
H         5.55852754684126    3.82082089622178    6.48960493245012
H         6.39356610624875    2.41560069381154    7.11782319020759
H         7.21959788615475    1.40604484509415    4.15476844769908
H         6.59720493579703    2.97594295424400    3.69002699655211
H         6.02558346036712    1.53421965632379    2.87634381455255
H        -0.87003300284617    3.13315958334169    7.07758982324877
H        -0.60870658777473    1.41355079172395    6.84293501860056
H        -2.19240258476762    2.11104611764888    6.54651046338470
H        -2.68838926135026    4.07788763213848    4.36588146151248
H        -1.64463324272733    4.33313907740294    2.98799566362565
H        -1.29077449661645    5.11497775861069    4.52885225894453
H        -0.72703255550626    1.21843391947040    2.56301700445421
H        -2.32974684955056    1.38539244885866    3.25191787777850
H        -1.19714590302674    0.26387829414995    3.96543330493698
H         1.26834373270621    0.12832433878559    5.15580947780583
H         2.67790394440233   -0.43256030213358    4.25518396586214
H         1.12179556047205   -0.22884338447456    3.41981208582528
H         1.83419182681228    5.18047449108288    3.97132831911692
H         1.86893608193264    6.22048062485544    2.55014936495133
H         0.48363740695780    5.18273647116989    2.84612716823563
H         1.74235780279793    3.29717498203880   -0.51929866804963
H         1.84583981760412    5.02612636277983   -0.27676266477941
H         0.45811868706136    4.14347209032288    0.30900843472517
H         4.62124203711580    4.56856973223888    2.86638350025023
H         4.45728453062205    5.26021002824001    1.26362867726047
H         4.91681689004841    3.57763614156996    1.45137790586107
H         3.75749317247248    2.56179784799419   -0.57199454193956
H         3.91563444399355    0.90222989800651   -1.10647194937666
H         5.00252092762905    1.53583182209352    0.10238986310339
H         4.39051564878623   -0.21261691307716    2.69800900359392
H         4.44424156850400   -0.95640992915575    1.11440920501996
H         3.14752254666168   -1.35863390346027    2.20728524725438
H         1.42284372404956   -0.46821853162843   -0.48819269628840
H         0.58711321275808    1.02761163557593   -0.12117682190285
H         0.55264831422073   -0.29883271435712    1.01929512358219
H         1.12451916861426    3.76317241369631    8.63529374824589
H         2.41697711167629    3.66020155563107    9.86421109444946
H         1.71701802535974    5.75370251583100   10.62362894403863
H         0.70064708870837    6.01438562752254    9.19439859664980
H         2.39847005433998    7.04668372976207    7.99750817011973
H         3.20805633918332    7.28941462226237    9.56206280162983
H         4.41180171677111    5.16686256549980    9.32019322046465
H         4.44688925488648    5.81747084831934    7.64535550818488

