37
CSD_code = FAFZAO | q = 0 | S = 0 | Stoichiometry = C19H10CrO7 | MND = 6
Cr        2.43653120040889    3.03180277823056    3.27052944482415
C         2.68737745891384    1.27163858695954    2.72328322910310
O         2.84870867427759    0.19025260928005    2.36747449766324
C         0.93812793882918    2.96883098817931    2.14728851840857
O         0.07035504881824    2.68827912496658    1.44531384324771
C         3.94404635676573    2.80609384050038    4.35849115824298
O         4.86743349802305    2.52228237356911    4.97654735594299
C         3.56801406176901    3.50921565315268    1.86184161047706
O         4.31142626823162    3.67136651634582    0.99990145187405
C         1.35603934777987    2.32687891734045    4.62743057040526
O         0.72748544433900    1.73781481260251    5.38682311506381
C         2.77164384850912    4.74381719606367    6.28535468808893
H         2.13161004165757    3.87543950755344    6.31645820134019
C         2.95033384025897    5.45448845322059    5.09724523277991
C         3.74669735068607    6.61606650132888    5.10116397633477
H         3.87833489318006    7.15095192742018    4.17296044417237
C         4.39332223296498    7.06514081807546    6.23425845546105
H         5.01777456353226    7.94382219151439    6.21768145677342
C         4.21037599407783    6.34483940607027    7.40249858170211
O         4.74318788465604    6.61708314611583    8.61785346809282
C         4.28691889244687    5.64829944029085    9.46401650550975
C         4.57973393987041    5.52664686421704   10.81003152879119
H         5.22673551282462    6.23389920175428   11.30316087002432
C         4.00931885150339    4.46255898946905   11.48669679753307
H         4.21625714907936    4.33600243116714   12.53850917702242
C         3.17657802166016    3.55125615989711   10.84224604243995
H         2.75353325330610    2.73449992095837   11.40724238822256
C         2.88481249660607    3.67385599484296    9.49755619199043
H         2.24110339357356    2.96737226463408    8.99701663887258
C         3.44472341561346    4.73523955067181    8.79981037051091
C         3.39457425091224    5.19186462077032    7.43521905444437
C         2.34031666585511    4.99304500123211    3.84147347236337
O         1.99954837522500    6.06225319437979    3.14121196524305
C         1.42702345294575    5.95076873866941    1.85716816017140
H         1.21447822401872    6.96849119060850    1.53029134630348
H         0.49883671922347    5.37404873787548    1.89265882612714
H         2.12018143668188    5.47499235063397    1.15749136452525

