130
CSD_code = FAGBAS | q = 0 | S = 0 | Stoichiometry = C61H61CuFN3O3 | MND = 2
C         8.77997835973034    1.06835160843034   25.61117466330601
C        10.97648091511262    1.13962970345836   26.05260789349342
H        11.85167119853435    1.26952062760585   26.65544976851400
C        10.83382534850587    0.84725006198349   24.73987582289470
H        11.56172007126708    0.66175461206528   23.97697306625037
C         9.45004778333993    1.56635426640199   27.93182668694790
C         9.08188947918504    2.86172320539061   28.29600938888971
C         8.91486924916921    3.13471983102105   29.64723905247403
H         8.63386273109734    4.12820314420197   29.95954223478589
C         9.10457245408603    2.15172621991011   30.59703823419940
H         8.99250147133563    2.38462684758925   31.64519673400824
C         9.42651637606427    0.86340966402534   30.21408503776517
H         9.53868293037874    0.10084815075651   30.96776933668711
C         9.60653411486776    0.54708524143514   28.87635546572676
C         8.84534740350164    3.93769342406252   27.26385195386036
H         9.10588886106044    3.54803935649168   26.27592023041688
C         7.35811970893172    4.29896993198243   27.24003158442209
H         7.15037103507845    5.00093461639424   26.43515663376986
H         7.05433587340862    4.74633096011207   28.18315954924547
H         6.76294064990846    3.40188977700451   27.08003735006301
C         9.71202779984050    5.17138626448568   27.52443168811067
H         9.56940269182135    5.89745899247058   26.72726131053209
H        10.76519342711616    4.89885878920913   27.55942426393910
H         9.44964324242872    5.64611902904581   28.46617011027378
C         9.88182948436641   -0.86996882502759   28.42804090914651
H        10.43330799219036   -0.84437645216955   27.48251107601219
C        10.72017976356417   -1.67254047112402   29.42253699964816
H        11.02604285583099   -2.61245083371812   28.96782401143778
H        10.15349917122462   -1.90665505086010   30.31987646185880
H        11.61405368655905   -1.12118771684793   29.70674291149355
C         8.53607186994716   -1.55765852614596   28.17483005458279
H         8.69321820328191   -2.56270400381454   27.78795968203183
H         7.94954273243047   -0.98935532572975   27.45228381161765
H         7.97065803852969   -1.62118723651604   29.10210167373682
C         8.90736203123673    0.56987860398145   23.21466297331362
C         8.35041764974402   -0.67832288477231   22.93503615751118
C         7.79181593804812   -0.87502776175570   21.67895464656196
H         7.35278982225494   -1.82951393875588   21.43534304694576
C         7.77772813073153    0.13852828491696   20.74225450225014
H         7.32812814023613   -0.02788371136231   19.77439143492597
C         8.32997517057868    1.37038117375945   21.03961057418369
H         8.29991297021139    2.15525617536740   20.30089638377284
C         8.91162354335064    1.60675040478418   22.27643598777484
C         8.35240807914076   -1.79865087298889   23.94611676989275
H         8.76221412254650   -1.42542705353287   24.88885996833638
C         9.23875482784669   -2.95099397283462   23.46450748573459
H         9.25662186965283   -3.74409458623675   24.20883614235970
H        10.25903554373951   -2.60847577894395   23.30010393588253
H         8.86325920545441   -3.36496652270946   22.53209717312968
C         6.92392939250070   -2.27220448073798   24.22081383797114
H         6.91453767335053   -2.96310340610783   25.06144130987851
H         6.50605471116310   -2.78063490346946   23.35599738508745
H         6.29209259514301   -1.41773586085776   24.45859795576519
C         9.47004161741849    2.96713231293774   22.62984975875371
H        10.20478859491054    2.85325882027527   23.43336476421300
C        10.18107328131161    3.64404741313588   21.45747364380113
H        10.71149005113634    4.52603543756116   21.81032333381012
H         9.47450307783004    3.96362320818567   20.69642132993602
H        10.90128808823665    2.96772027032234   21.00180244583980
C         8.32861972003634    3.84420882952984   23.15237875582227
H         8.70795782205391    4.81445722189403   23.46655052098738
H         7.83908731313792    3.36548210869066   23.99895565560661
H         7.58827562582037    3.99587025724458   22.37091589809510
C         4.26377145602567    1.15422614927913   25.45018378439445
C         4.50994135028956    1.03981699492930   26.95603902040138
C         2.44937209992320    0.19891788208943   26.62582758644695
C         2.91996224006306    0.47706365663335   25.33750009655603
C         2.19326737362260    0.14001297451954   24.22004076087730
H         2.55990499509572    0.34610057220629   23.22821273170297
C         0.98047343202922   -0.49972120409663   24.42647782766044
C         0.50258619331930   -0.79588191921807   25.68894610786841
H        -0.44410952174642   -1.30183127870360   25.79289414699409
C         1.24201804574566   -0.44828432391087   26.81126497241730
H         0.86495598401378   -0.68599139312952   27.79109391502537
C         3.30992012843138    0.28257870239652   29.01206639582399
C         4.33864423143942    1.08966556924862   29.79986587849466
C         4.36609232393073    2.47154972359882   29.64159519073009
H         3.74228074060242    2.94064314817282   28.89497182198918
C         5.18760177404257    3.25288461020359   30.42812172834177
H         5.19830716554862    4.32406775902953   30.28879400974334
C         5.97649546825164    2.66931166999772   31.40440454551466
H         6.59894770104194    3.28449863636048   32.03675416174611
C         5.95117884174693    1.29774517508754   31.57078007831532
H         6.56221697920071    0.83143471317561   32.32983722851014
C         5.13548712095124    0.51082250659083   30.77583726928095
H         5.12015150782561   -0.55897335788048   30.92491346884421
C         3.54025531840399   -1.22277067553043   29.06454854800902
C         4.77523842896717   -1.70248387341924   28.63480742594045
H         5.54416663797691   -1.00366248023999   28.34396111510970
C         5.02324466635365   -3.06054877808077   28.57666987053184
H         5.98710601585642   -3.41189007421944   28.24003023464051
C         4.03959491356530   -3.96403262600546   28.94226969245188
H         4.23080136826721   -5.02600970261922   28.89670527724359
C         2.80696148558416   -3.49649794348312   29.35951100653692
H         2.02908640345520   -4.19215471553197   29.63843103884811
C         2.55520235365580   -2.13565926677403   29.41517582080590
H         1.58205671492574   -1.79752344706946   29.73877164522725
C         2.01315212032730    0.74174652951230   29.66525897231167
C         1.76449714986227    0.34857238013796   30.97835858243706
H         2.46599059766930   -0.30167199798602   31.48006745448035
C         0.63904078331474    0.78848085816944   31.64827889222014
H         0.45971395286542    0.46350189506562   32.66250028368081
C        -0.25007539142058    1.64917507806394   31.02624243884392
H        -1.13035206151668    1.99348423494020   31.54802144818834
C         0.00750349309683    2.07439478107901   29.73616024036017
H        -0.66889068109172    2.75817819521153   29.24478819252550
C         1.13332001950037    1.63045915874815   29.06314445942486
H         1.30877107815679    1.97908561919616   28.05741620970291
C         4.09110982891741    2.65529223648701   25.16296159386865
C         3.23824528273250    3.45915599035535   25.89972065464861
H         2.62473409141850    3.03445441858643   26.68137249472407
C         3.14601129479371    4.81864891079955   25.65076774536370
H         2.47408091371043    5.41433667526765   26.24945404350411
C         3.91322745060861    5.39169700797842   24.64406658218932
C         4.75554443837249    4.57902435466828   23.88612701277222
H         5.33379289565315    5.03575227150685   23.09854102016203
C         4.84162640661822    3.22893527847150   24.14579196586685
H         5.48734841387488    2.58351783036652   23.56832872357855
C         3.07534257352461    7.58538124032415   25.04091889683586
H         3.23665529904898    8.57526046380863   24.61630977971901
H         3.33379960323687    7.60311572893894   26.10523226774800
H         2.02054656700263    7.31291467188111   24.92885417543157
Cu        6.89421129998082    1.00151691671130   25.71199859820429
F         0.23483212107078   -0.85363200517195   23.35384084818844
N         9.71076275766475    1.27127358906137   26.56786611397135
N         9.48638464026777    0.80821087788365   24.49002007917915
N         3.38222575811053    0.63423607380216   27.58666480160693
O         5.29342794238167    0.59311304852677   24.76640011588459
O         5.61704051501216    1.21876594782676   27.45321146609374
O         3.91378332429885    6.71940368507860   24.31892001300260

