80
CSD_code = FAGGIG | q = 0 | S = 0 | Stoichiometry = C32H42Cl2O2SiZr | MND = 12
Zr        6.51637282203196    6.93630324513869   10.22319309180521
Cl        4.86422402371842    5.27900612391679   10.30541947593692
Si        6.51647060184499   11.19156092913065   10.22333412813560
O         3.42257680926360   11.11096978788735   10.89940590868058
C         6.33558027624182    6.71791766199057   12.70743501888175
H         6.08853892122317    5.80324329775962   13.23458700922320
C         7.63408818609688    7.21898204045195   12.48283882497329
C         7.54250522362670    8.47383634072144   11.82505338425307
H         8.37996741235588    9.14072980155459   11.66599539894854
C         6.15530671512753    8.81545536161700   11.72818312833096
C         5.47676249540232    9.95009501111276   11.22599272275176
C         4.09376110940326    9.96229825955925   11.30962060576497
C         3.32748495892273    8.83379749555795   11.72774918700789
C         3.99896196479170    7.72724970229026   12.20408335844365
H         3.46602412999472    6.85820721280436   12.55708969068848
C         5.40274042126360    7.70851249374480   12.26621528491623
C         8.90910456392716    6.57989176355666   12.94630488063663
H         9.22247403304106    7.02480918100737   13.89324428258367
H         9.70639644241598    6.72862749664183   12.21803398488061
H         8.77219496259180    5.51020017714032   13.09654377548849
C         7.49961864765219   12.26118898131408   11.47039370871961
H         7.48500471908710   13.30853014260134   11.18590733982589
H         8.53816158769352   11.95542432507415   11.52166474445551
H         7.08697071274566   12.18419152455132   12.47228687437009
C         3.61247178223835   12.23037896747990   11.73940961468296
H         3.00111301356485   13.02833350600022   11.32007887317735
H         4.65652179715056   12.54931032430675   11.76298655159641
H         3.28312926088236   12.01631817982001   12.76172181789284
C         1.81158899786999    8.80874248351002   11.55293168834875
C         1.13614825615130    9.89627895632719   12.39901239160926
H         1.47750060723529    9.83965114819152   13.43099448974723
H         0.05738037421081    9.75525072798910   12.38698328737255
H         1.34898961308073   10.88396740819647   12.00695216876962
C         1.20656348686787    7.45897652401145   11.95545963360558
H         1.33985270548326    7.26691183293940   13.01761204328862
H         1.64440789948787    6.64366821796129   11.38410189402587
H         0.13785977626081    7.47430513654650   11.75117365204271
C         1.49947190043748    9.02863852993037   10.06514133654841
H         0.42426880410382    9.00357692568778    9.90185592821901
H         1.95756981134899    8.23931174222363    9.47122863086836
H         1.87918253014184    9.98742352526733    9.72693922636268
O         9.61058000406592   11.11090963145562    9.54724961009645
C         6.69740794161955    6.71805325972615    7.73905963563165
H         6.94444014838485    5.80326047737690    7.21211072291248
C         5.39892857976109    7.21917799064423    7.96354745144241
C         5.49051284620319    8.47396551386871    8.62144671841447
H         4.65303242769854    9.14079508657911    8.78065796815616
C         6.87772103348485    8.81552051884590    8.71843501529333
C         7.55627430713287    9.95009548864628    9.22076561679555
C         8.93928548765164    9.96225735192108    9.13714205012548
C         9.70553752323181    8.83370543245105    8.71910832953609
C         9.03404789716278    7.72716261192548    8.24278252295136
H         9.56697277240977    6.85812740619699    7.88973730245759
C         7.63027321062931    7.70855829950822    8.18041007648681
C         4.12389977166710    6.58001062595345    7.50026391585024
H         3.81052866954693    7.02481110097229    6.55327972431465
H         3.32665292911585    6.72882745343409    8.22857050429173
H         4.26080616153957    5.51029652435458    7.35021403419790
C         5.53306395576566   12.26145119080080    8.97620543253786
H         5.54582862798588   13.30849908074549    9.26302806390608
H         4.49501754094166   11.95314474122122    8.92366045579040
H         5.94800140101908   12.18605270199075    7.97478245693875
C         9.42063271503465   12.23038736250578    8.70734225461260
H        10.03214156239319   13.02827374104854    9.12659135069043
H         8.37661428637952   12.54944028689719    8.68403004818688
H         9.74975994983215   12.01634234467444    7.68495702075118
C        11.22144590724660    8.80867319168651    8.89387855028755
C        11.89692396390721    9.89614077882244    8.04772502446250
H        11.55562058064689    9.83941906516555    7.01573130369769
H        12.97570399082699    9.75516167973758    8.05981294401315
H        11.68403593173189   10.88385550477595    8.43968009131009
C        11.82648293994200    7.45889051526718    8.49143527090917
H        11.69317762430910    7.26675633788531    7.42929914268224
H        11.38863803303743    6.64362378757015    9.06284610277366
H        12.89518894793009    7.47422883058688    8.69571163729419
C        11.53356348964506    9.02865374039746   10.38165588173800
H        12.60876578856624    9.00359765497478   10.54492223216476
H        11.07546951603499    8.23936617450472   10.97562803435625
H        11.15386044219757    9.98745979716425   10.71980583833356
Cl        8.16904873634133    5.27917422419933   10.14373062574998

