62
CSD_code = FAGHEA | q = 0 | S = 0 | Stoichiometry = C23H33F3HgO2 | MND = 2
Hg        3.66069166104492    0.95554770501650    1.14728991647179
C         4.32047377778583   -0.31224703968768   -0.57305368786161
C         4.40577202393284    0.17301211826944   -1.88717908726447
C         4.86059281491279   -0.82411435667129   -2.69949555036210
C         5.31734952211057   -2.08448007068608   -2.88707529551651
C         5.04503499396932   -2.19293117771736   -1.56882286736634
C         4.65676783190027   -1.65741596353567   -0.37599527139072
C         4.03681387717376    1.55144644708207   -2.33405426270224
C         2.58250745334077    1.68092364591135   -2.84857348227278
C         2.38546681502584    0.81763864924538   -4.09500785598346
C         1.58631327636620    1.25509784309183   -1.77089232896212
C         2.34209812285432    3.15008116632080   -3.20289241160002
C         5.85373793693441   -2.93950804022430   -3.95801760835062
C         4.84285006640267   -3.19740929742826   -5.09923380596167
C         4.61461996556497   -1.90714206592166   -5.88536047011822
C         5.43201109276141   -4.26382351959860   -6.02464007640947
C         3.52223957669635   -3.70265682603392   -4.51579009702009
C         4.54426078933563   -2.41538249393692    0.90557918528222
C         3.34931944499015   -3.39826117156848    0.91352988455284
C         2.07749219825005   -2.68211002384261    0.45855120707367
C         3.64472983321913   -4.57787053470768   -0.01373115962374
C         3.15788381237992   -3.89678730196837    2.34651410997456
O         1.69517577971621    0.10002493695234    2.61163443615929
C         1.03879217393776    1.10267053944399    2.32304978530111
O         1.41101810271062    2.10660392747408    1.70909460589546
C        -0.46352601821011    1.10894400900846    2.75832643122247
F        -0.75328052706634    2.15682092535848    3.54191980935578
F        -0.81582923342762    0.00802902870742    3.43091415483632
F        -1.27301535970040    1.18441945937409    1.68827634704292
H         4.16218140518983    2.24078885824646   -1.48956846598116
H         4.71588449764067    1.86145853898435   -3.13081203859023
H         1.37753799443871    0.94348403421992   -4.48224808486874
H         3.08852122319424    1.10068581676368   -4.87549434017213
H         2.52835370713963   -0.23438092080675   -3.85939650970055
H         0.56774189557775    1.37864516690034   -2.13082178691889
H         1.71801632300544    0.20685302214378   -1.50059239313951
H         1.69193594390812    1.87034811333609   -0.87424968703516
H         3.04698791025291    3.48705578841252   -3.96013916494783
H         1.33510564039296    3.28387396887334   -3.58984929225214
H         2.45276163462494    3.77895444476086   -2.32259438729194
H         6.74165295191473   -2.45868071361391   -4.37633930850874
H         6.15037392150318   -3.89052220744012   -3.51200052175620
H         5.53194513413029   -1.59287965133972   -6.37885290726037
H         3.85275891401377   -2.05827769873242   -6.64608423784500
H         4.28806134381336   -1.10827128136374   -5.22562024369055
H         4.76591976035362   -4.43771135913889   -6.86617000899830
H         6.39724759516030   -3.94765659395093   -6.41421263537844
H         5.56559316228514   -5.20530316945526   -5.49630317785289
H         2.83348018067918   -3.96431949871659   -5.31525628691789
H         3.68539980956997   -4.58736738865965   -3.90353169992563
H         3.05137238617433   -2.94044356043084   -3.89863190132899
H         5.46418998388987   -2.97668874279846    1.08223958239416
H         4.40979157848162   -1.70365050089030    1.73098454782303
H         2.13760374336330   -2.40579091813618   -0.59286735704971
H         1.21481969885717   -3.33055483110665    0.58936012604967
H         1.91336656969207   -1.78211175469320    1.05196265352948
H         3.86301481106160   -4.22652772065846   -1.02064926027765
H         4.50068777115687   -5.14465780812492    0.34663381759209
H         2.78677931628657   -5.24388553946410   -0.05965040590010
H         2.37743477114736   -4.65288730376961    2.38147582790502
H         4.07670984975544   -4.33479247002746    2.73160384776606
H         2.86370676638586   -3.07430663705251    2.99441114614112

