95
CSD_code = FAGSOW | q = 0 | S = 0 | Stoichiometry = C36H54N3SV | MND = 4
V         3.24793920885200    2.99044476313153    1.61618118098404
S         2.88890779356527    3.90081457737220   -0.18580693000904
N         3.99195403845799    1.39097291550214    1.22533922287826
N         1.63778954872291    2.83347005314762    2.42104328435910
C         1.02840623480114    0.49158477875044    2.72331946069754
N         4.36971925095896    4.08950160803002    2.51044250903356
C         3.92316006755131    4.06992605028384    6.67630960100484
H         3.82222037554219    4.07552158275812    7.75327798221923
C         4.50409224064727    0.12408639949003    3.23343309885909
C         1.82723663552921    1.76046634168560    4.59192944434173
H         2.16908910356701    2.69490139678930    5.00960372401851
C         4.19317358189300    4.06623331072593    3.89886221038757
C         5.64387903151630    2.26652343596263    6.91469417221285
H         6.23130966597360    1.60210772818781    6.28676239745108
H         5.01214844950402    1.66751013439564    7.56893357429047
H         6.32214302421648    2.84229389789020    7.54458033580309
C         3.17557113683326    4.95981988099808    5.91480747776127
C         4.93699079773760    3.19156759202573    4.69406786140958
C         5.41009122591271   -0.36658337405250    4.15898040111007
C         1.51949128400866    1.69716841600503    3.23001501535194
C         5.25297004064566    5.15682901700625    2.02731660296289
C         6.27314447991968    1.25165897294828    2.07609152375065
C         0.37718099373712    3.54679456529764    2.18797570654612
C         4.91385402499381    0.94759809946450    2.18100431905076
C         3.32521460239446    4.95797453660240    4.53664308358639
C         1.66985055500972    0.65978187286442    5.41793578899201
C         7.19408237769476    0.77998501229925    3.00140866412871
C         3.97805478136155    0.60437020565376   -0.01320423374837
C         6.75330061733620   -0.02876781622254    4.03934012947562
C         1.19964598009586   -0.53215179216675    4.87890392294215
C         4.81079913266903    3.18762312966762    6.07438082698160
C         1.97039488651443    0.75467390337345    6.88392837188470
H         2.39106480335050    1.72689360182415    7.12625133136830
H         2.67595123325585   -0.01961169161865    7.18160234421419
H         1.05861573780992    0.61369074316104    7.46467697285563
C         8.64116884932516    1.15733916062997    2.87750422953734
H         9.26752577871776    0.50085650074066    3.47636292458605
H         8.79331619451905    2.18081199426690    3.22275074837916
H         8.96701623978424    1.10459575312056    1.84050350410340
C         6.06777905210535    4.66769404986427    0.82011479801124
H         6.81251679598699    3.94287981572043    1.14065526425445
H         6.58555373211312    5.50807207532844    0.36208339455723
H         5.41511962708618    4.21342222010406    0.07599453056669
C         2.21129720422448    5.89818358056884    6.57920936006090
H         1.92291845860591    6.70320670141973    5.90769681118305
H         2.64977057614925    6.32935911453736    7.47690396415125
H         1.30899006876035    5.36123454060888    6.87438408136395
C         0.62882730925512    5.05987185356167    2.10039440865911
H         0.87025979019366    5.45558507867382    3.08410127222382
H        -0.26854605892301    5.56097075116855    1.74308855375638
H         1.44477185141033    5.27361194645889    1.41152684547715
C         6.25968075634953    5.59453746024460    3.10693019098497
H         6.82204636076272    4.73926629497657    3.47703503951137
H         5.76037669123238    6.06829084528883    3.94950849011206
H         6.95830463483980    6.30809521370972    2.67549340607037
C         4.95946317242849   -1.27710052540179    5.26181394626735
H         3.88074016088796   -1.40565896410366    5.23525875152516
H         5.24252951508083   -0.87204518053256    6.23236413713255
H         5.43112430157956   -2.25451064023377    5.15981693468652
C        -0.27862274048875    3.08166840336963    0.87330141573801
H        -0.53400095674734    2.02568768947216    0.91907491740349
H         0.40219464273084    3.25085445591554    0.03945250426598
H        -1.19170724621482    3.64551904861469    0.69559234842998
C         0.87632205103455   -0.62570406698862    3.53255516087281
C         2.55199826698845    0.52364792753839   -0.57900168461368
H         2.10408286832738    1.51475692548321   -0.63339478449831
H         1.93713138794434   -0.11870621820351    0.04704170189078
H         2.57836303059348    0.09853965290528   -1.58035030782175
C         0.38218956628276   -1.91524592922986    2.94541144561093
H         0.02065661069957   -2.58388849425830    3.72275234049594
H         1.19003722329254   -2.41898243031425    2.41280291645270
H        -0.42203158226340   -1.73395830140406    2.23508999784707
C         4.89273726479295    1.24401715140691   -1.07570617697711
H         4.56762544921774    2.26393762404157   -1.27916986794228
H         4.84204947405420    0.67291468869687   -2.00008372329863
H         5.92694560262889    1.25762563066159   -0.73997562833341
C         4.45295375791267   -0.84079694937452    0.22508130058723
H         5.50146610925656   -0.87436895239091    0.51349898215163
H         4.32988965412333   -1.41278559843741   -0.69200773230310
H         3.86521256726545   -1.31348112172322    1.00981351764678
C        -0.62481414253083    3.31991371270445    3.33476795160570
H        -0.17909785493621    3.58583729325842    4.29145669587322
H        -0.94902994065380    2.28246271938401    3.38238864854462
H        -1.49923271905196    3.94672938195921    3.17401094248639
C         4.43644903641212    6.39200641655365    1.60029353358442
H         3.73143533241472    6.11770215761244    0.81607777882073
H         5.10271261377419    7.16026801359031    1.21415119447541
H         3.89048296117224    6.80732193471724    2.44403824650887
H         3.46416140402652   -0.15438806446882    3.30746487452127
H         6.61400112483986    1.86439448103498    1.25401088069600
H         0.75799490924020    0.43039552323426    1.67909428614052
H         1.07094119867787   -1.39305854447283    5.52103970533519
H         7.46522561882865   -0.41378195978647    4.75697948283479
H         5.64268733046467    2.52491493926256    4.22287345079545
H         2.76420212082715    5.66158736964731    3.93884671784155

