31
CSD_code = FAGTOY | q = 0 | S = 0 | Stoichiometry = C11H14BrNO3Pd | MND = 4
Pd        4.59526408515815    0.29701577212484    1.89365344918373
N         5.28957611114008    2.09992460464676    1.71904977046722
Br        3.94949372368147   -1.91819161521533    2.09284978275162
O         6.92745260418715    0.05729537931013    1.56425013819709
C         2.80549002411969    1.25392892631556    2.13477145517497
H         1.87311330101054    0.73789291547083    1.88696119409194
H         2.84957927645628    1.47935818322642    3.21553381305741
C         2.98571094394705    2.48566605280368    1.33296690885212
O         2.16506411067345    2.99072842802254    0.59621923121492
C         4.37967485495093    3.04847078487633    1.46548607051991
C         4.74211139490575    4.37483920219745    1.29601021133222
H         3.98568963250377    5.10761744344957    1.06562458799980
C         6.08073607172338    4.70817020673725    1.43486749207024
H         6.40461835535742    5.73228977794226    1.33413334154328
C         7.01199855876658    3.71041137985634    1.69620872399145
H         8.05265872604490    3.96302589424125    1.80866504293364
C         6.58863024039561    2.39314906153692    1.81088406784300
C         7.54549244219448    1.22556125817756    2.10325229949682
O         7.76813968653260    1.08394657711049    3.49025345231092
C         8.92529890042045    1.45728390594867    1.48094117963160
H         9.40631731589970    2.30125300572025    1.96248984976378
H         8.82553969018315    1.63893285080750    0.41450805429848
H         9.54862884012664    0.58455937048146    1.64764860258394
C         6.63256307598165    0.90797604824400    4.32192505713536
H         6.06851079387482    1.84408750536310    4.42940241894445
H         7.03252727841800    0.62074835630470    5.29243842845166
H         5.96184458356360    0.09754819632424    3.96320838506691
C         7.64567956671594   -1.16570517362180    1.72275787986986
H         8.36053450994066   -1.29443807365699    0.90566501248025
H         6.90296150840519   -1.96499660826057    1.68461740533234
H         8.16139979272157   -1.19094961649264    2.68535669340691

