71
CSD_code = FAGTIT | q = -1 | S = 0 | Stoichiometry = C36H24Br2CoN2O6(1-) | MND = 6
Br        1.50308957990878   15.89818881503972   17.74451346212850
Br       -5.00567503968854    5.61233148792587   16.21846853561558
Co       -1.98537818910480   11.48659324317999   13.04930622593936
O        -3.19455595892634   13.78239262514565   16.64516844759046
O        -2.27908921596686   12.50054437551826   14.58748189323267
O        -1.76348828764120   10.44250282077637   11.52048624649310
O        -0.43344404647374    8.12678925334844   15.49357988932993
O        -1.54413608216621   10.01541756213276   14.10934708930049
O        -2.35436040210500   12.98369672198426   12.00045508484670
N        -0.15841887214142   11.85445474752682   12.94101476956884
N        -3.81944126394040   11.14120524372300   13.02342692703433
C        -3.73368532104260   14.48369443336643   17.73138691083595
H        -3.63170581059304   15.56810386080261   17.60526659067311
H        -3.26742394615556   14.18691839602709   18.67872367434637
H        -4.79122841988835   14.22425342963400   17.75614057849470
C        -1.86783389506192   13.94160986657620   16.36796642995381
C        -1.00821689769397   14.72342921551401   17.09552951562931
H        -1.33747518817835   15.28091443811089   17.95850001860483
C         0.33506428648763   14.80138444821661   16.70780933189832
C         0.81951091076081   14.12587833842868   15.62924206778905
H         1.86084648171292   14.20369602338914   15.35184129156872
C        -0.04097506991792   13.31471568929513   14.86045501047158
C        -1.41868589348974   13.20138991297972   15.21301657643140
C         0.50299943504520   12.62941403651390   13.74339181044995
H         1.56691384506852   12.78888312997458   13.57082417559969
C         0.42725731667276   11.19883445381867   11.86765212277198
C         1.75015406405365   11.21908719022323   11.48965822003838
H         2.48831734159903   11.78500770303573   12.04121463698787
C         2.18731245766755   10.49612855774894   10.36616164789765
C         3.53632963503399   10.50458374538278    9.95691925398166
H         4.24713307604824   11.08583186961298   10.52992654499322
C         3.94745238672630    9.79889254697781    8.86081266011041
H         4.98466948441876    9.81393461377784    8.55516475442589
C         3.01897828911720    9.04683369230614    8.12186381539884
H         3.35666120758872    8.49248125933584    7.25623045418488
C         1.70472910810810    9.01553070884347    8.49104427880236
H         0.98968455900176    8.43676972096924    7.92230378237946
C         1.24175606212394    9.73395712384067    9.61789701472396
C        -0.10025702426426    9.71565779990011   10.01075361249364
H        -0.81921298909460    9.13846542077038    9.44820538886342
C        -0.53391346089337   10.43112610681062   11.12095049703409
C         0.20730078362340    7.11143317953750   16.21526385514323
H         0.09443721136959    6.13490912147728   15.72953133702090
H        -0.16661724008322    7.04605271040876   17.24423998515975
H         1.26223429813512    7.38182732831530   16.23424746797324
C        -1.78179171518381    8.03281986432892   15.30486359478397
C        -2.56745194621729    7.01912764795347   15.78936278252364
H        -2.15565682361664    6.20519813456583   16.36544009521287
C        -3.94310703945019    7.03963966739510   15.52872473741262
C        -4.53066100370278    8.03568493314123   14.80970144429877
H        -5.59507821200004    8.02812108555769   14.62433611568916
C        -3.74832253751118    9.09185350291144   14.29800817417632
C        -2.34112160510390    9.11561568928614   14.53137387351360
C        -4.39997654478527   10.11196211187591   13.55756313458314
H        -5.47717409362659    9.99229405744291   13.44568706962972
C        -4.50923001235966   12.12210280887313   12.32568222198170
C        -5.86838372395962   12.22011643884739   12.13521717938015
H        -6.55216841752337   11.49169049258814   12.54898056231168
C        -6.41512043246809   13.28374767435399   11.39641759786779
C        -7.80389466355597   13.40532299421741   11.18675232301324
H        -8.45872409645650   12.65511902367798   11.61079604827120
C        -8.32197735200707   14.44338130103321   10.46394376984149
H        -9.38900036421741   14.52599828667571   10.30850365493638
C        -7.46566935278259   15.41314766267682    9.91623215796368
H        -7.88791059885493   16.22963644334827    9.34557398697376
C        -6.11554097442043   15.32689323704171   10.10150928824948
H        -5.45601131390774   16.07338494053294    9.68026933046227
C        -5.54279703163832   14.26734736364775   10.84284650799578
C        -4.16306453044800   14.16387590323156   11.04634079241903
H        -3.49948969645973   14.90948718727305   10.63374399558896
C        -3.62158922350107   13.11468457929636   11.78014567670364

