37
CSD_code = FAGWOA | q = 0 | S = 0 | Stoichiometry = C12H15N4O5Re | MND = 6
Re        3.77400495581619    5.70255479297982    3.00940979288161
C         4.55211530145769    9.08297946696892    3.02981744183045
H         4.76468347552957   10.15299972310068    3.01508145950361
O         2.84106139161922    7.59861324150880    2.18681672601741
C         3.17358328643746    8.80492175492581    2.22063071826032
O         2.63467366838516    9.77591751740990    1.75283762154055
O         2.33617212955830    5.31064532663719    3.78709323075264
O         3.73619337108195    4.99867987062381    1.48329625102305
O         4.94579234546045    4.81056747966645    3.84177920499842
N         4.09801517441293    7.34073376571959    4.62690969162206
C         3.57009013946672    5.90981707083137    6.54986272444336
H         3.50806844949827    5.99844237673685    7.63053273497910
H         4.32636398459729    5.17581695998222    6.27220214870734
H         2.62275591069729    5.54658807307026    6.14941622500182
N         4.37654600759794    8.63378240491763    4.38030648089154
C         3.89240182969733    7.21451329267764    5.93398764996193
C         4.03383342567156    8.47150752792032    6.53497967949299
H         3.92652355795172    8.69969162425722    7.57512353328343
C         4.33414317400780    9.35894314864416    5.52038002851244
C         4.56659548162888   10.82312311696066    5.55885336073147
H         5.55695116858628   11.07555138811597    5.17963585377740
H         4.49123844764394   11.17159491333691    6.58475793029618
H         3.82226163262700   11.34692577754137    4.95918470940106
N         5.53249994993141    7.02282593845461    2.26343843258241
C         6.80255809123834    5.19472747345520    1.22975422905475
H         7.73829616897084    5.06192298212528    0.69530990876591
H         5.97317452969107    4.82036905632353    0.62924614324215
H         6.80566374989752    4.61284724359701    2.15130378870549
N         5.60696302836789    8.36139229487507    2.37952828410586
C         6.57427479272538    6.62142176172399    1.54241859001935
C         7.32944261001615    7.74376043321201    1.17997755828241
H         8.22629508204908    7.75066406713814    0.59601439648093
C         6.68604172550470    8.83964215111854    1.72026186714576
C         7.01758352300196   10.28333502023589    1.64775225619144
H         7.93119577051821   10.41327301594367    1.07493883579930
H         7.17062777722441   10.70218485632416    2.64260509876623
H         6.21861489143223   10.83882309093922    1.15685541294932

