53
CSD_code = FAGWAN | q = 0 | S = 0 | Stoichiometry = C22H22FO6PW | MND = 6
C         0.23451927484941    3.45039159067002    3.44140628800977
H        -0.07487172564233    4.42487843176805    3.86225416014778
C        -0.85750789664362    2.44298333468983    3.63325076771505
C        -0.94134548412726    1.32327096236927    2.81640884808608
H        -0.23989553967585    1.21158631700604    2.00423856904845
C        -1.91855957147303    0.37142470844633    3.04455785259568
H        -1.97744860945414   -0.49827643114389    2.40717735413409
C        -2.81310802720766    0.52664234567799    4.08978478222454
H        -3.57066862402692   -0.22111363166202    4.27042260697469
C        -2.73464499215847    1.64354985172850    4.90451119486006
H        -3.43044759761809    1.77033072877941    5.72048851963511
C        -1.76043034842668    2.59894147446744    4.67890239707813
H        -1.70359691540639    3.47402346865949    5.31197499163936
C         2.77924993158736    3.99097570850747    3.29411756778939
C         2.00583019078047    4.01559751182323    1.94626418559210
C         2.75359362044873    2.99273765937588    1.11154708272489
C         3.87488818899536    2.58680174587868    1.70057295874613
C         4.12725248430905    3.29325792689482    3.00936895356890
H         4.34315058721000    2.56615341184578    3.80853350494861
C         2.87362643100325    5.31857574138705    4.03648619187592
H         1.87930443685350    5.69138133662813    4.28539560805726
H         3.38624631389333    6.07404174692784    3.44782689299973
H         3.41860718485631    5.17713245239064    4.96873407629678
C         1.96609882318764    5.37704462669379    1.25057911167415
H         2.97331266397258    5.72802977836209    1.04422662728511
H         1.44080614415746    6.10829072077669    1.85905984799644
H         1.43072922085425    5.26837584987788    0.31119114932997
C         2.17894039291490    2.56130939176411   -0.19448517036945
H         2.55175499737433    3.19037823081639   -1.00324948227896
H         1.09566020767700    2.65023439706275   -0.15817477058968
H         2.44633767495829    1.53108629080879   -0.41618487948854
C         4.86106118257404    1.59094877581682    1.19208055534708
H         5.69158743315005    2.09395156983596    0.69642838721044
H         4.39918372707776    0.91770358955468    0.47533270271138
H         5.26198044705489    1.00639106704936    2.01781651603824
C         5.32814197240081    4.23279205640148    2.89788404157593
H         6.21555914221740    3.65340677240473    2.65594319497451
H         5.51043937333102    4.75184545835821    3.83467922045971
H         5.17267844335048    4.96453272775359    2.10866367917237
C         1.90122345333011    1.98224944467493    8.67350271620241
C         0.43762610998055    1.06950826869181    6.44149512491194
C         0.53364155638919    3.89389566229558    7.11467548238027
C         3.35879840184246    3.71572007567710    7.11601688183132
C         3.21779650552452    1.03392998955732    6.33821243948704
F         1.94786477789600    1.47988673896492    3.58184267321331
O         0.64647207578236    3.56762579707455    2.11279546109155
O         1.92426958700640    1.70842349657416    9.78129337797344
O        -0.30011847317397    0.21167563886490    6.31398290059481
O        -0.20350497625189    4.73951834678791    7.32912816028196
O         4.24557087099604    4.37927835629551    7.39879857859049
O         3.99988262300039    0.24325806892505    6.08895343328233
P         1.74913202588650    2.88159071609912    4.36110332863494
W         1.86303030262964    2.44792970307007    6.74518335571598

