40
CSD_code = FAGXER | q = 0 | S = 0 | Stoichiometry = C11H20N2O6Pt | MND = 4
Pt        0.25803345530278    3.81282651401817    8.74304484979136
O         1.24221393362676    4.64764548695082   13.55596134055168
O         1.16730736981308    3.88798086488755   10.51761533918298
O        -1.28523189830287    4.80691010263006    9.59180616885294
O        -0.80127712469681    5.47512650788035   13.07930945364710
O        -2.79663291265201    3.40087570559920   12.03782413851732
H        -3.53101452727511    2.90252595463875   12.41308624713128
O        -3.31954794421678    6.33111982591315   14.16617835793835
H        -2.37735944043691    6.54507429956248   14.19559926402478
N        -0.64923243451700    3.65065600758117    6.84637825409488
N         1.82979832865928    2.78378644676591    7.87243283433007
H         1.70620119881774    1.82875240670555    8.21825873168080
C         0.14552072747127    2.66180395600138    6.09743352281068
H        -0.02282335282233    2.76346248381443    5.01640697783816
H        -0.18045059062495    1.66232012717539    6.40091178400818
C         1.63699730852690    2.80803850685588    6.41661727054530
H         2.20584494899612    2.01085824008142    5.91932988185683
H         2.00995474173154    3.76679573984791    6.04551330048586
C        -2.03788090323144    3.20893778995616    6.97693442659546
H        -2.07633707960452    2.24802521033022    7.48849442798874
H        -2.51808064722389    3.11749592197302    5.99542362334862
H        -2.57892589377458    3.93300944390611    7.58314536219131
C        -0.62335661963166    4.95917878070638    6.19327624502358
H         0.40003222978852    5.31756091482510    6.09366719703044
H        -1.17595844515565    5.66752068339151    6.80840230342472
H        -1.08286421144048    4.91083957758930    5.19803086886978
C         3.16074469863131    3.23378462304455    8.28618729200502
H         3.20337617361385    3.22957548603644    9.37415900731142
H         3.32123875514893    4.25541651884665    7.94420078134853
H         3.94693374245990    2.59072214802467    7.87801368427642
C         0.37868248292522    4.82016790288117   12.73203645447166
C         0.27732256648355    4.49644142980905   11.33026000396334
C        -0.91609996075559    4.92902583555193   10.85520558460395
C        -1.69945056383123    5.53750600602088   11.97896180554589
H        -1.95127712925509    6.59128949425050   11.79966038478649
C        -3.00465242023400    4.77218567498926   12.28678104658136
H        -3.77764125001416    5.16323980862714   11.60526412749383
C        -3.42329786141081    4.99724186050032   13.75551514298073
H        -4.47387854942355    4.71563049505779   13.88479616117307
H        -2.79853090146163    4.34444521678332   14.38057635169026

