81
CSD_code = FAGYAQ | q = 0 | S = 0 | Stoichiometry = C45H27AuN6O2 | MND = 4
C        -1.86813971733265    0.69467693797023    5.12429916559646
H        -2.30997126216433   -0.26854362461952    5.28982395049193
C         1.40609799748437    1.41100241211446   -0.22801848358568
C        -0.90689113898558    1.46682017183871   -1.10187625783580
H        -0.55437282804779    0.99180051415605   -2.00341037688344
C        -2.22043667881433    1.79610942406365   -0.95740451271373
H        -2.94414492642959    1.59240274817085   -1.73048865261306
C        -2.67318546807983    2.42996023362082    0.22127743947807
C         0.02811649043960    1.73902285784780   -0.08065464936332
C         3.08535260449977    0.44721624906986   -1.60951373237871
H         3.11470471439387   -0.02091421776473   -2.59224743701170
H         3.43051806386287   -0.26933937478477   -0.85723322602204
H         3.74283463741790    1.32252653990793   -1.60649063781526
C        -4.52773144288240    3.35005695603164    1.38804362850433
H        -5.59221982739589    3.47341941835747    1.19467982565391
H        -4.07280903323053    4.33275329758223    1.55111825589581
H        -4.38951043766553    2.73570081812059    2.28421410805876
C         3.00901634489221   12.52835577010554    4.89007367842917
N         3.48370430346784   13.55648796427605    4.70977521991601
O         1.74248977347092    0.80856693021480   -1.40031696785523
O        -4.00208793240904    2.72132128203337    0.24580946588063
C        -1.92681978622501    4.95133771515869    8.84102964810004
C        -2.73074619215886    4.39511653976519    9.85603671018847
H        -3.00791746809986    4.88264235189811   10.77024247441761
C        -3.09321627660914    3.12933297414937    9.44917585870958
H        -3.71845213674762    2.44138499599483    9.98440035512388
C        -2.50567378483646    2.88967925492697    8.17756645601289
C        -2.55947835672813    1.79959915726816    7.29212156522462
C        -1.92892291269857    1.78934633844115    6.03914803110359
C        -1.13554815197534    1.08547818910219    4.04457255255239
H        -0.89078250900815    0.50822718322205    3.17479911380189
C        -0.72247536708280    2.43099580712165    4.26928184060364
C         0.06466451618189    3.22516939321436    3.42907996678563
C         0.47943073542866    4.52782570087167    3.71730256574953
C         1.27336581044087    5.38249872776621    2.89847539444669
H         1.66157170046821    5.11669699625331    1.93505402387847
C         1.43202746033843    6.55974633986558    3.56479862970048
H         1.99523123969185    7.41358485902287    3.24201398676022
C         0.72831905117008    6.46637564836110    4.80383640999471
C         0.64718684115436    7.45322399272247    5.79729482176053
C        -0.01469429406060    7.26655805360868    7.02306694781432
C        -0.25284652149253    8.12424113786306    8.13095039979366
H         0.08777896167164    9.13773698347779    8.21690677929772
C        -1.00312372418526    7.43038655197248    9.05549443357413
H        -1.35376063735756    7.79104941083402   10.00273571725799
C        -1.24392189388000    6.14664124842358    8.52659541188334
C        -3.31725526983311    0.61015747739552    7.71353208060766
C        -3.02889547769455   -0.00966403970292    8.92955649850216
H        -2.22791990978506    0.37656668127998    9.54211244372284
C        -3.73705149106117   -1.11912081890307    9.34110802823089
H        -3.50607602133391   -1.60210303859559   10.27924941232153
C        -4.75926804367877   -1.62682113591551    8.53761041406512
C        -5.06023142530865   -1.00972724327438    7.32237099877462
H        -5.85681013933640   -1.40239850563473    6.70750110683745
C        -4.34246681240486    0.09659427181084    6.91900460520012
H        -4.58496098385050    0.58521690114216    5.98691941659610
C        -5.48873431326087   -2.76305336793884    8.95405812329265
C         0.50903559304989    2.62780173822854    2.14770844828572
C         1.83201070440865    2.31839052438639    1.95903965452531
H         2.54330889938733    2.52984021477564    2.74450423915924
C         2.28810398222324    1.71257309559322    0.78299713852050
H         3.33826701709754    1.48357721519601    0.69826347721671
C        -1.78414847090420    2.70547433022460    1.23024435826736
H        -2.10098466027057    3.19738753660567    2.13594975213215
C        -0.42281787054273    2.35602741342600    1.11108101406900
C         1.27136674229530    8.76318427049174    5.54955515818424
C         0.93161795935049    9.51209883287699    4.42259286752120
H         0.20191526277195    9.12199789007435    3.72858493071324
C         1.49852632430013   10.74960922436643    4.20158133076821
H         1.22920605216691   11.33006934984554    3.33132328116883
C         2.42456110492468   11.26123309153855    5.11209718121503
C         2.77043787241315   10.51999749610229    6.24310678558612
H         3.48975700482360   10.91924005664998    6.94307852003132
C         2.19393465481938    9.28537184002429    6.45609326217185
H         2.46952035235685    8.70389684709028    7.32323836189465
Au       -0.85191014617092    4.50650861112800    6.31279820607207
N        -1.81640792286193    4.01359896975149    7.85160602442927
N        -1.21152949291026    2.82509726025532    5.48415066971472
N         0.16855779227716    5.21039260298473    4.86141852591648
N        -0.62955246987877    6.08917504825853    7.30591997073356
N        -6.07933693747377   -3.68516950113982    9.29410381518722

