57
CSD_code = FAHCUO | q = 0 | S = 0 | Stoichiometry = C16H38N2Zn | MND = 4
Zn        7.75478376501762    3.23862814905257    6.07456705190158
N         8.57714104585668    1.95861724153931    4.14640418959836
H         9.24131812822141    2.61914030142298    3.74702208857458
N         9.48585351525086    1.73608001304570    6.94604318892753
H         8.91878582500878    0.96487345727336    7.29321066234753
C         5.96220514273973    2.37717830000138    6.81883233242027
C         6.09475410541949    0.90054412026179    7.20984773698725
H         6.80663848910618    0.77045500195798    8.02393098939717
H         6.41733446169927    0.29312056866072    6.36503531136688
H         5.13168673536246    0.50631297889941    7.55242524403582
C         5.50015543018573    3.14128427367996    8.06707599721604
H         5.35197667789122    4.19703884594137    7.84566211296709
H         6.22620032903225    3.06218345063744    8.87466382498400
H         4.54940451432795    2.74029777567226    8.43504792552670
C         4.82824556040940    2.47350989495545    5.79032325762340
H         3.88932313466856    2.10523517745290    6.21859770787791
H         5.04296170453832    1.87641912865134    4.90626011923118
H         4.66660947133871    3.50411617443675    5.47802866193544
C         8.57694689846023    5.16845950777549    5.74860421952549
C         8.91241875376864    5.85031473109902    7.08128044514200
H         9.71082196531186    5.32696355536209    7.60380192617961
H         8.04160295687108    5.88835686663153    7.73402454678528
H         9.24676928127201    6.88004001543626    6.91252100231867
C         7.55188975485808    6.05986939405088    5.03452548013967
H         6.62576675006768    6.12317209678838    5.60365029625472
H         7.31571544201295    5.67922654911240    4.04217356368432
H         7.94142329710469    7.07691882093960    4.91588710115407
C         9.85528695668668    5.17489402405560    4.90219934496279
H        10.24714190040185    6.19351894094302    4.80663707897950
H         9.66525902188830    4.80461792771144    3.89541694561988
H        10.63477323881666    4.56354918125009    5.35498174572811
C         9.34933389547060    2.73877322917738    9.14707635133083
H         8.62879969010287    3.43300845204818    8.72192021718232
H         9.90775199635645    3.24476232972473    9.93019152321510
H         8.81111174531521    1.90397715186525    9.59166800850500
C        11.25268851313997    1.19643442637552    8.64058546307012
H        11.73306891531079    1.59659222277286    9.52930292801989
H        12.03198685639170    0.92670011305475    7.93205095130914
H        10.70799658444652    0.29636868335391    8.92233853316574
C        10.29171780418026    2.24003449399465    8.05757557647328
H        10.87384022232784    3.08472950862305    7.67114985429978
C        10.24890520196393    1.25957212649041    5.80415304760269
H        10.89439540349459    0.40476161263538    6.05714446720710
H        10.88643192579622    2.07867245677734    5.45883909160799
C         9.32303616352585    0.82676819233301    4.67152380782383
H         9.93796144218871    0.33556399702972    3.90214091584579
H         8.60287793612203    0.09569255796909    5.05083977962786
C         7.59707137752057    1.62237773763900    3.11425125549168
H         6.87566115158288    0.93628261830430    3.57311624067585
C         6.87803468823006    2.90079823234262    2.69937334829723
H         6.49396322538007    3.41010046957645    3.57968391831331
H         6.04947738380133    2.67207687136308    2.03437636422842
H         7.56373131419172    3.56729896154062    2.17989223773085
C         8.21085951637386    0.94799315540763    1.88099946371508
H         7.45202299503228    0.83045966835696    1.11217390168045
H         8.60448905327305   -0.03791780607945    2.11579452190644
H         9.01579074487439    1.55978207262083    1.47615613228093

