71
CSD_code = FAHCIA | q = 0 | S = 0 | Stoichiometry = C34H29ClNPRuS4 | MND = 6
Ru        5.16061297201273    8.90236964926772    1.84605710724676
S         3.33235281534124   10.28875097498071    1.22569002535235
S         5.02168613658055    8.01808230188114   -0.35734038637504
S         3.54356565109577    7.43637129749971    2.67711133281924
S         6.70011651036127   10.53273352131262    0.91608664300097
P         5.47777972861205    9.77850081181593    3.92837391305538
Cl        3.03387154124012    4.49612901888715    2.95429901246284
N         7.38502259317918    6.74687523674813    2.15004644637418
C         7.20105619281555   11.17043945169474    5.62072371154580
C         8.44219944707297   11.57237956612229    6.07450720165939
C         9.59003853418105   11.16873401238243    5.40911254207166
C         9.49566524351399   10.35610440731685    4.29239773285650
C         8.25552697849845    9.94930333720772    3.83148885517926
C         7.10426810579854   10.36617491480779    4.48727194607081
C         4.42011885856471    9.19414623599003    6.49867587288942
C         4.17175491297354    8.33211629569252    7.55212208865542
C         4.55611720955128    7.00379483155808    7.47480973951855
C         5.20190597554156    6.53476920601889    6.34215651837576
C         5.45110937284686    7.39075494651489    5.28601920252447
C         5.05087078612189    8.72271525025464    5.35306731941448
C         3.02390783413391   11.00314408459062    4.27842185038983
C         2.14136254128492   12.06556183431823    4.25356001624658
C         2.61250817345984   13.35098280918744    4.03336521548917
C         3.96459272681483   13.56836466155340    3.82496230990764
C         4.85365697027943   12.50836626978205    3.85145672884498
C         4.39038307348446   11.22221171427153    4.10584183265667
C         6.48362052928498    8.68928304368098   -1.13189155918343
C         6.89424341574391    8.10718211259579   -2.31984869525469
C         7.99680380898344    8.60482074813721   -2.98539750562325
C         8.68381987900583    9.68865579643137   -2.44969356233582
C         8.28039405428181   10.25995556656679   -1.26458875086603
C         7.17293013878906    9.76399399579997   -0.56548335940046
C         3.83700981655757    5.76680399280070    2.00529591318575
C         3.57320800923668   10.39677029172953   -0.58839132231970
C         3.74561196404565    9.03557528923039   -1.22051416291739
C         1.94528685615442    9.16265345029931    1.24486553351330
C         0.74829199467516    9.56670286438117    0.67087912334622
C        -0.32841624190244    8.70068847856461    0.63294182308601
C        -0.21910448912117    7.43431290868114    1.18835150252662
C         0.95763027701409    7.03923437109907    1.79679827252141
C         2.04860198807058    7.89818981167396    1.81728429538050
C         6.62756959200535    7.61209305044704    2.11016541432746
H         6.30407757196241   11.48103781068691    6.13916507925756
H         8.51707402682754   12.20026231328591    6.95084717822194
H        10.55839936686327   11.48710661704926    5.76705289042935
H        10.38916895969891   10.03592985380194    3.77762220218194
H         8.17100196318617    9.31013092167401    2.96296309545036
H         4.11491360813260   10.22896124174046    6.56661052913675
H         3.67566063604633    8.70038492398004    8.43875869276627
H         4.35515867917824    6.33560187822918    8.29939276450660
H         5.51093215668874    5.50170210041890    6.28255401274737
H         5.96569209724160    7.04128076205457    4.39892394680621
H         2.66408686585570    9.99087175715949    4.42955150339456
H         1.08410148681454   11.89221714858701    4.39676901357578
H         1.92173786390371   14.18128021258820    4.01157154885455
H         4.32714362414394   14.56775808488816    3.63301821111023
H         5.90735947062695   12.66712620037003    3.66754980996501
H         4.91579483271703    5.61310480994051    2.06986237370955
H         3.48569686669912    5.71041762417619    0.97673945682355
H         4.47490867064158   11.00449342137829   -0.69648197096896
H         2.72005070122836   10.92607698685875   -1.01393714948234
H         2.82042357751743    8.45610234650034   -1.17225813872712
H         4.06888168219905    9.12019153263943   -2.25817832732651
H         6.34293633162051    7.26396315492208   -2.71090682650173
H         8.32177997267345    8.15133419905539   -3.90884875512276
H         9.54821832657383   10.08242575488391   -2.96370665209158
H         8.81338536364344   11.09592488660665   -0.83864255691189
H         0.66931135052148   10.55970805854060    0.25428608013589
H        -1.25434328196696    9.01654509389107    0.17744136665475
H        -1.05896996555482    6.75730374963145    1.16293397433169
H         1.03856471542450    6.06576413987804    2.25388890903955

