94
CSD_code = FAHCOJ | q = 0 | S = 0 | Stoichiometry = C43H45AgNOP3 | MND = 4
Ag        0.29926851437821   -0.04250290404487    0.43148341314022
P         2.49305887949860   -0.12866225496058   -0.69404452697099
N         0.13181981103576    0.11139508095383   -2.98104432984646
C         3.93446337728458   -1.06905977451690   -0.09196988204485
C         2.60813301519104    2.62419140315448   -0.37374797300693
H         1.67862379476063    2.48481371499265    0.16862372598704
C         1.54625218613572    0.20831925031525   -3.31568291063334
H         1.85988076425772    1.24427518702998   -3.16526047997964
H         1.70943471462281   -0.03641398019229   -4.38295470623978
C         2.43906797610653   -0.68402695615477   -2.46072244009672
H         3.45331522715258   -0.67668276906368   -2.87183168154816
H         2.06977725229820   -1.71191284310820   -2.46389190043414
C         3.26153164458556    1.51551162104835   -0.89749481835015
C         4.47419584067812    1.68571166494495   -1.56053371260329
H         5.00665998256372    0.82620741727990   -1.94504260226111
C         5.00698427556189    2.95201063705872   -1.71260538620522
H         5.94871768506764    3.08028394947683   -2.22679211568243
C         4.62244520550742   -0.54178009385842    1.00028555815397
H         4.31579995199257    0.41491238017782    1.40373932350683
C         4.30541115365351   -2.31454657536747   -0.58892959346614
H         3.77020120819230   -2.75708018290914   -1.41638611988297
C         3.14075598917330    3.89171671863168   -0.53112519897462
H         2.61931239667557    4.74600343327238   -0.12446314386674
C         5.36488573943834   -3.00083229045538   -0.02108715802829
H         5.64998723295638   -3.96534246813721   -0.41689522457252
C         6.05725795092233   -2.46058022950316    1.04898071772094
H         6.88310888148622   -3.00061136263515    1.48769957665048
C         5.68124295316200   -1.22800049181992    1.56072899672649
H         6.21327529310339   -0.80598503190232    2.40065774191070
C         4.33905618668191    4.05652298675253   -1.20551816680123
H         4.75976004001561    5.04350176203135   -1.33051676721316
C        -0.72869876909844    0.21171928976595    3.57166973642327
H        -1.68882280822546    0.40634617044402    4.09007303457610
O        -0.92199574403596    0.22778255667833    2.21818690128145
P        -0.88464977469241    1.96537494902349   -0.85280235235967
C        -0.91382307072567    3.55453907695742    0.04394886152568
C        -3.20519674480479    0.91230185351911    0.13891226245599
H        -2.54002610741795    0.56697645047853    0.92238546532653
C        -0.59581808480655    1.26663800478260   -3.49760507968429
H        -1.65138038485642    0.99713346262974   -3.55693489591738
H        -0.25712094313318    1.51891082003597   -4.51971445623789
C        -0.47253542995979    2.48082253935489   -2.58491152914059
H        -1.12144666385425    3.28186487627479   -2.94504121225391
H         0.55456451789772    2.85684422088234   -2.56349700237325
C        -2.68567805758134    1.66104503960077   -0.91559347978072
C        -3.53991629991902    2.12029160163895   -1.91308199797986
H        -3.17069615675636    2.72381509195206   -2.72999118601720
C        -4.88799108359602    1.80981205679929   -1.86780103087135
H        -5.54425045809493    2.16236502766271   -2.65176852779478
C        -1.17244995084410    3.44560588859123    1.41028210717524
H        -1.31660253555573    2.45939351161177    1.83617784198200
C        -0.66043630874603    4.80404583252542   -0.50873292855669
H        -0.42958289001369    4.91115755906662   -1.55849051803202
C        -4.55632923640705    0.62061321647441    0.18570570051905
H        -4.95049764574407    0.04017554082164    1.00673299715029
C        -0.69148248558375    5.93215660293016    0.29439764947565
H        -0.49462921851105    6.90251839245718   -0.14035515493362
C        -0.97211414649695    5.82352766019669    1.64542730478424
H        -0.99772932038576    6.70943668669343    2.26373122151147
C        -1.20781610585467    4.57596628268288    2.20314246894113
H        -1.41106149405586    4.48628986517483    3.26024254803171
C        -5.39862861691913    1.05714431654991   -0.82336075695422
H        -6.45192762789956    0.81719588077133   -0.79641421824235
P        -1.23749503375856   -1.76238362140117   -0.90658090664622
C        -2.81781400766819   -2.28629213770602   -0.16755091150648
C         0.84517333302445   -3.54148216408434   -0.43829340243271
H         1.31479180035271   -2.67795031353430    0.02535172285437
C        -0.45275385826386   -1.12654496902243   -3.48423398303770
H         0.28446146993938   -1.92729196459649   -3.39073783168623
H        -0.70304868337871   -1.03502121235398   -4.55721627835635
C        -1.68873122160288   -1.54038651283341   -2.69287053707965
H        -2.08875407129736   -2.46425194322167   -3.11722060792697
H        -2.45987464776141   -0.76679043005700   -2.72800860115226
C        -0.42479917715339   -3.40594138863434   -0.98475329579949
C        -1.04387917866206   -4.52074400522067   -1.54239933395259
H        -2.04768751392825   -4.44120389295471   -1.93598631707471
C        -0.38768048313582   -5.73702876694307   -1.57537482142162
H        -0.87371166010447   -6.59832710287982   -2.01094272691053
C        -2.80983960767189   -2.36957824845673    1.22336508190205
H        -1.91924954328567   -2.06604444633049    1.75848403794541
C        -3.98127001727312   -2.59113069932332   -0.86371706112103
H        -4.02550201604270   -2.50355375593707   -1.93929252029048
C         1.50170851855517   -4.75908328108795   -0.46807299031746
H         2.48846412209315   -4.85029252363521   -0.03699217523417
C        -5.11154867783338   -2.99634999494838   -0.17463765662273
H        -6.01451813852393   -3.23127176029756   -0.72064831050546
C        -5.09206933941980   -3.09883113310451    1.20585842014238
H        -5.97871593471259   -3.41679282251720    1.73548180858489
C        -3.93954427286500   -2.77691913913183    1.90558932977212
H        -3.92696536763659   -2.83434395403572    2.98404275015834
C         0.88725295158739   -5.85788477595862   -1.04439483823996
H         1.39485343811710   -6.81102967844558   -1.07125211494390
H        -0.35388922015244   -0.76064202700651    3.94715594074462
H        -0.01427943895987    0.98432134219969    3.91867014102912

