60
CSD_code = FAHCIC | q = 0 | S = 0 | Stoichiometry = C19H32Cl2N3O2PRu | MND = 9
C         3.28644381071936    2.71789543133700    5.41917971986453
C         1.94793422722791    2.54398629530394    4.99020242789718
C         0.79942168553069    3.10913310893006    5.77770691586583
C         1.77694076413656    1.75832598524259    3.83778084364345
C         0.40270200269242    1.35892680685669    3.34131748214795
C         0.36819818762174   -0.17113029836644    3.37678339048629
C         1.09684603889031   -0.57854901468444    4.64066985587388
C         2.21812076908701   -1.42526997188472    4.60729546666616
C         2.75085840722592   -2.03130390435396    3.33750622749822
C         2.89198053115429   -1.61053625470263    5.83488034073915
C         4.73293441891827    0.69855094221589    8.46254208991986
C         6.13683120015374    1.87043585400231    6.40708741958672
C         6.03635151256899   -0.92909636238859    6.47007410175261
C         6.92755842058607    1.75526457014264    8.68532955017149
C         8.00435625764296    0.47073169135142    6.92143287891491
C         6.26642198471323   -0.22562524758696   10.07952608733983
C         7.49410024442302   -0.04495403186295   10.93571008906338
C         7.87393847213395   -1.71862938401503    7.94970008537826
C         7.15422308213153   -3.03108981169994    8.12295213580311
Cl        1.70476562275377    0.71765718147621    7.47173651989184
Cl        4.69915593770351    0.42190261019001    3.75798272151034
N         6.00433379403340    0.73918968299862    9.14782766422383
N         7.25928315037373    1.64445878791511    7.28428841850534
N         7.28807444486484   -0.77131995773960    7.16171096155464
O         5.51459391735008   -1.17080256181392   10.21841676355605
O         8.94097871776080   -1.49312930155624    8.49081929097793
P         4.87796325782088    0.52778119033027    6.62856979782222
Ru        2.88756389220719    0.56035944511620    5.38730863938206
H         4.05333679475088    2.90522214630592    4.66580194069928
H         3.42157691792060    3.28493346972519    6.33874324556963
H         0.09705606634384    2.34301759527401    6.09883993897573
H         0.27340331666528    3.83226662652304    5.15300252804828
H         1.16264775908254    3.61349971069708    6.66931647628479
H         2.54155743118741    1.80181657923069    3.05855496743507
H        -0.37137738729312    1.75832016494474    3.99527336281630
H         0.23363190440505    1.74005357227942    2.33150355955339
H        -0.65669986067310   -0.54990914925031    3.38626886513236
H         0.87444561629366   -0.56715795919446    2.49719384052856
H         0.47794278579732   -0.57459472051426    5.54029783474174
H         3.01213449850626   -1.27797635508478    2.59618559701234
H         1.99162832726652   -2.68988670105158    2.91513102094054
H         3.64514911615336   -2.61515218189083    3.54197804523318
H         2.30987454180570   -1.69674045289097    6.75317979957078
H         3.75946608494809   -2.26359365739500    5.80469897978960
H         4.16885783326787    1.62289143275363    8.65350433861709
H         4.15145735487691   -0.14022061010668    8.86110474238594
H         6.48243028139055    1.88350514925452    5.36877253848665
H         5.69355943618601    2.84153917457541    6.64787704912062
H         5.50695915431935   -1.79079663767827    6.87920802634276
H         6.20513832212309   -1.07645833493609    5.39201137065679
H         6.47530045561114    2.74611909777449    8.83494225214921
H         7.85599398858414    1.69291770997795    9.25163056700695
H         8.24890539093881    0.54793250158650    5.85443025585381
H         8.92670694145960    0.42532397648632    7.50688588280862
H         7.42241264348838   -0.74679888024844   11.76259152723468
H         8.38967090683763   -0.28597123797708   10.36569839377823
H         7.56475463550495    0.96698245162163   11.32595538444774
H         6.90284304595282   -3.48126818791810    7.16568110305373
H         6.25219301257580   -2.88314521202992    8.71500418297095
H         7.81526793129814   -3.69853456159753    8.66949449671835

