45
CSD_code = FAHDEY | q = 0 | S = 0 | Stoichiometry = C16H24NiS4 | MND = 4
Ni       -2.24719995661041    5.23609543940301    3.38959885865926
C        -1.79517253921943    8.57878873951308    5.04454569267196
H        -2.68416048768933    8.21552101534028    4.52754401862717
H        -1.34501077683810    9.39051015374095    4.47806726724663
H        -2.10792078385056    8.97032915433142    6.01090805761476
C         0.49308200206378    7.90708695373169    5.86739984802650
H         0.31273310677399    8.36687935672944    6.83713411602236
H         0.97231980038256    8.64444500975126    5.22578930265956
H         1.17541771406841    7.07042553136122    6.00232804094808
S        -2.98280187558368    5.66670104736770    5.37599493725946
C        -1.45791430915642    6.34188809584080    6.12107237120075
H        -1.75292305711545    6.73787029890389    7.09412066358683
H        -0.76051379594755    5.51583356444257    6.27340584586303
C        -0.82205282019605    7.43217389538827    5.26456112376801
S        -0.44163907432571    6.55174088329114    3.66941969953595
C        -0.26465565507761    7.92502753287633    2.45275633922589
H        -1.24548738140881    8.36178252335745    2.27312986637790
H         0.38533856043484    8.66103929377189    2.92448044351188
C        -4.64968445179634    5.88376107882593    1.68757130827270
H        -4.57864058611554    6.78504073649221    1.08219279981018
H        -4.19287224423174    6.07003016553608    2.68407360907033
H        -5.70215001073108    5.65460847538388    1.84305244318233
C        -4.39465543858119    4.52865301475559   -0.42940463295233
H        -5.44705945356153    4.25343444029689   -0.46231761855419
H        -3.81782722293829    3.74154384978241   -0.91012544532138
H        -4.27035257873182    5.45063571036382   -0.99365198295926
S        -3.48607354604436    3.45478652533814    3.50075266478857
C        -4.19137536419630    3.41548934990441    1.80402347213496
H        -3.73509425878432    2.56968367907300    1.28669406106203
H        -5.26147013957594    3.23275593372449    1.91331983106765
C        -3.95790016932711    4.70271276432647    1.01868128984926
S        -2.10974147557799    4.91734769289375    1.10298052067745
C        -1.83449016387404    6.54896077882472    0.28481533747164
H        -2.26998865628936    6.47429161543882   -0.71074662140898
H        -2.34518201335984    7.31913131966443    0.85896250856736
C         0.37183381505321    7.39869066529592    1.20749367923438
C        -0.35969202163434    6.77055268692797    0.19491442562595
C         0.31149675606849    6.28860190434216   -0.92455983489955
H        -0.25522985936987    5.79719907528682   -1.70215197833231
C         1.68003797392221    6.42023069168666   -1.05346327864131
H         2.17919598768461    6.03732560277470   -1.93045525437038
C         2.40501111677016    7.03947761370953   -0.04977071796402
H         3.47579979717707    7.14486581894195   -0.13507879206172
C         1.75080018044513    7.52045895747420    1.06730400847549
H         2.31746535673071    7.99969136405758    1.85283770531133

