57
CSD_code = FAHFIF | q = 0 | S = 0 | Stoichiometry = C31H22AuClNP | MND = 2
C         3.78304297744875    3.85663871456430    8.44893244149663
C         4.26707265948791    2.58305293881879    8.99450421524080
C         3.59930275973942    1.57450297803426    9.66440491625353
H         2.52882938729863    1.62647082843384    9.80528103005016
C         4.32670598235576    0.49214252065802   10.13762931112126
H         3.81434290343274   -0.30649008772677   10.65314621906400
C         5.70013234596790    0.41982241758092    9.95707892571200
H         6.24408912553477   -0.43287219595239   10.33660564405266
C         6.38288343135455    1.42866810238124    9.29296886753790
H         7.45275905664918    1.37102039145791    9.15571314946807
C         5.66448121909809    2.50630255048347    8.81038255186970
C         6.08857540070054    3.67306787923785    8.05290546556303
C         7.32295307711521    4.04032285963586    7.55214584245496
H         8.20221561500076    3.44794707729990    7.75730824819082
C         7.40951245788156    5.17865944960168    6.76222435006076
H         8.36731949207643    5.48323029093019    6.36625487881319
C         6.27475355502812    5.90688228315014    6.43935057544512
H         6.35391186419587    6.75924491133142    5.78023306406796
C         5.03247491612472    5.54349585541052    6.93943251585120
H         4.14633575965162    6.08267618198031    6.62508434089983
C         4.94651578700647    4.45997739863635    7.79298479828189
C         2.54291253647543    4.36075650380666    8.66205439208793
C         0.79120368126219    6.58833107519146    9.39404551876407
C         1.10381740330018    6.97905173780609   10.69167634175649
H         2.13690483664457    7.00819970742288   11.01321668587484
C         0.08963570581864    7.31334197088082   11.57156269776812
H         0.33216119909464    7.60517618342408   12.58279061457277
C        -1.23119029360303    7.26508378059636   11.15861574908097
H        -2.02068400972235    7.51758821239343   11.85019701361276
C        -1.54332053852261    6.88521048866701    9.86211160714573
H        -2.57305311089981    6.83734287608580    9.54325550651499
C        -0.53783448825566    6.54444691018103    8.97898684062804
H        -0.78046621053187    6.22623038455418    7.97420403001113
C         3.39108470320563    7.29277103118000    8.63803487668521
C         4.11873135575894    9.39176471177398    8.18083871135665
H         3.96637884419540   10.29449227246064    7.60384601582319
C         5.16440587834229    9.28002891926156    9.08546503253784
H         5.85401019967093   10.09713975295323    9.22761167688450
C         5.30025160327256    8.09839321379241    9.79959974034662
H         6.10033341990960    7.97426183219445   10.51464436952955
C         4.39384139840197    7.07633049783173    9.57648119614798
H         4.45842693395907    6.13027088944398   10.09522952906878
C         1.51051393878629    6.28239864529312    6.61028771028359
C         1.58435652132599    5.22717054609661    5.70782145847415
H         2.00469548619981    4.28151744316932    6.02482414270559
C         1.11503422441232    5.40177062169646    4.41856775168539
H         1.16507044192068    4.58600806452486    3.71334840994880
C         0.58057390619816    6.62211098359389    4.03663719123530
H         0.21396313531724    6.75558729580502    3.02974427104360
C         0.51012264976248    7.67176957338031    4.94046325647951
H         0.09022670310265    8.61897448533298    4.63601131674176
C         0.96942987842882    7.50829447185544    6.23409717168163
H         0.92283608518809    8.31474114016350    6.95091325592337
N         3.24912744922462    8.42191352713244    7.96219178743212
P         2.11417529245284    6.03004596776235    8.28689340625880
Cl       -1.37589787513202    2.86917102796776    9.34028850626001
Au        0.75521134182208    3.55424990841166    9.04787086613708

