110
CSD_code = FAHJIH | q = 0 | S = 0 | Stoichiometry = C59H48P2Pt | MND = 4
Pt        4.64186694716543    3.86858419381595    2.58465646532732
P         6.92216682635507    4.07658501123882    2.04576121476404
P         3.84841638739487    4.53338523578846    0.47024557899105
C         5.00466255085608    3.55261803069225    4.57520895879617
C         4.53526456287255    2.49383404250861    5.25271087138244
C         3.64519484873302    1.50933574362900    4.61604055227111
C         2.81778747570223    1.92071235563296    3.63103111094929
C         2.72934885810028    3.32366030804066    3.18264010530117
C         4.95036980486687    5.94311175317470    5.10472354055803
C         5.49355547672228    7.10297284090049    5.61813715059449
C         6.74226244437302    7.08269478646134    6.22047365503763
C         7.43266983338926    5.88616702338817    6.30704818072402
C         6.88959272371851    4.72008890275395    5.79768003808288
C         5.63620346259760    4.72395131164205    5.18416682901632
C         3.60018154050966    2.42181439138924    7.54144527221603
C         3.71870002591799    2.25313707391860    8.90756076082236
C         4.95253387100213    1.96886594460819    9.46833531214532
C         6.06305291945018    1.84865905288589    8.65186931888220
C         5.94483725956844    2.01889378750493    7.28452988297979
C         4.71377888384845    2.31685761489003    6.71367831961668
C         4.85611160519969   -0.49333114961678    5.44267067964810
C         4.87237631141010   -1.78911638443308    5.91935494204356
C         3.68764117361439   -2.48949089026117    6.07622036015315
C         2.48696848987690   -1.88374274692452    5.74588784508111
C         2.46954270252172   -0.58692847171591    5.26903638712042
C         3.65407048874354    0.13087260621364    5.11238274984330
C         7.77942042778293    6.61056155848295    2.58782842571709
C         8.23259775706277    7.88497120882497    2.31150179358867
C         8.55480004648851    8.23801343824719    1.00965790289728
C         8.40629261589034    7.31513878568086   -0.01147281219660
C         7.94830523663433    6.03736862663696    0.25864247289846
C         7.65670834112912    5.66687335569184    1.56627606284187
C         6.25502895312631    1.98163325435802    0.40375047642539
C         6.43596437382852    1.03796336285965   -0.59067464751136
C         7.61079328222372    1.03156812861764   -1.32447425227534
C         8.61215512966248    1.94706015482061   -1.03996703123392
C         8.43759827766056    2.88462566416176   -0.03850724875364
C         7.24053862752956    2.92644185979565    0.66750796354145
C         9.35711670039528    3.91400213093600    3.53584731505069
C        10.20285948532692    3.24264614517726    4.40232966593139
C         9.84777459359742    2.00421449414525    4.90986351065296
C         8.63876511813432    1.42814572314245    4.54961973070408
C         7.78628735903204    2.09781786930010    3.69407553660558
C         8.14019728776320    3.34629620903809    3.18607459386339
C         3.47858296046874    6.77613339237937    1.94311049289538
C         2.81271417045471    7.85723040246781    2.48652104704077
C         1.49482834791928    8.10335410719782    2.13182393419674
C         0.84922732869128    7.26517969195569    1.23889778989979
C         1.51463772044234    6.18363698546368    0.68506087421597
C         2.83725360976633    5.94153492699118    1.02674793607409
C         2.45488198251305    2.20514433265241   -0.12334977744589
C         1.61252211939263    1.40011885708842   -0.86980385731728
C         1.03521062364927    1.89055818866888   -2.02860493026545
C         1.30765565688091    3.18467533325319   -2.44543118546950
C         2.15073747377956    3.99077456050769   -1.70409770723437
C         2.72137611899548    3.50695316866489   -0.52942239719424
C         5.39101169345202    4.42607288539042   -1.82182666411010
C         6.15447786295926    4.92772710521370   -2.85742240512754
C         6.34343557190466    6.29575056937086   -2.98055120499515
C         5.77289768747465    7.15477847603293   -2.05702023433288
C         5.01651169124543    6.65538161056947   -1.01144851813220
C         4.80840239576724    5.28644960643263   -0.89276914862773
H         2.18766088613502    1.18949161968908    3.13640447027473
H         1.95042391089521    3.44802734687451    2.41967285446199
H         2.47479631502611    3.97383320080541    4.03424429697630
H         3.96748417539401    5.96267810321325    4.64943535352417
H         4.94189388529434    8.03085028590982    5.55308569174140
H         7.17112217339908    7.99083670938383    6.61920817546308
H         8.40729138238610    5.85704716111825    6.77442482748438
H         7.45084340794538    3.80336721843976    5.87109474078324
H         2.63670735474027    2.64172640621889    7.10329959195970
H         2.84558512316361    2.34093760686822    9.53873103493961
H         5.04606205368322    1.83507443830749   10.53646804063384
H         7.02720845610763    1.61576654736723    9.08195917855667
H         6.81317737096058    1.89753313852941    6.65363583621533
H         5.78210718425827    0.04499005153895    5.30835794030722
H         5.81313973221228   -2.25889305849594    6.17074618405747
H         3.69977291143255   -3.50125910742222    6.45520093351395
H         1.55869428296833   -2.42422049242286    5.86886622590414
H         1.52764071461206   -0.11264853758235    5.03237773399193
H         7.51389516709228    6.33128079767365    3.59884879679525
H         8.33082322602862    8.60513789548310    3.11070085926763
H         8.91225314779949    9.23364017331193    0.79126612156506
H         8.64371241398597    7.59024221320215   -1.02894309226686
H         7.81604502859807    5.33327893843742   -0.54973449437853
H         5.34440585383492    1.99431833707020    1.00248779338023
H         5.66356444496021    0.31039500691078   -0.79484987336709
H         7.75414612178749    0.30351867769426   -2.10953699117719
H         9.53753047478726    1.92336274664493   -1.59733352058722
H         9.23131257998621    3.57829314266036    0.20173529961150
H         9.64219601773363    4.87957938972020    3.14296819469315
H        11.14624294701193    3.68936552327044    4.68164852953480
H        10.51211971732518    1.48747346091674    5.58697297994358
H         8.36547071943417    0.45808273305865    4.94035805007951
H         6.82691501246447    1.67265556058617    3.42111232240546
H         4.50960171293509    6.56449291636062    2.22169778497148
H         3.31485473148026    8.50167910452611    3.19319044212469
H         0.96785935749071    8.94310131562491    2.56048473791728
H        -0.18191266389874    7.45024922786054    0.97445569275658
H         0.99852752743909    5.52515507466686    0.00070539328103
H         2.90997839139740    1.82817672390532    0.78259890546504
H         1.40770284217147    0.38927259002643   -0.54842595807147
H         0.37621521869023    1.26459398090763   -2.61218243124070
H         0.86216597823207    3.56453103462795   -3.35361238142750
H         2.37632680183296    4.99520199898342   -2.03712102658286
H         5.23581295576922    3.35927739272498   -1.73066952102346
H         6.60124577741584    4.25096088257173   -3.57151505762020
H         6.93402569977047    6.68909267625248   -3.79494195477585
H         5.91610232865038    8.22168674058788   -2.14888069553467
H         4.57952304368524    7.33537656710939   -0.29408760197403

