60
CSD_code = FAHLUY | q = 0 | S = 0 | Stoichiometry = C31H21MoO6P | MND = 6
C        10.22336560353213   15.41268147671029    2.44596056152387
H        10.76733118311802   15.19704124330003    3.36614076272987
C        10.48504064216245   16.72390507230405    1.80482624663951
C         9.82737202536089   17.85832370113365    2.27141460351663
H         9.12712363142814   17.76832537292973    3.09161603965623
C        10.06229052224693   19.08681119249420    1.68162202493038
H         9.54471797211661   19.96305084420425    2.04256453738394
C        10.94656776714072   19.18937665291370    0.62015453233832
H        11.12115559993551   20.14760215923014    0.15455144647365
C        11.59701697978084   18.06163573235612    0.14917788174078
H        12.27998207717066   18.13888203808738   -0.68347105375426
C        11.36874446867264   16.83077097831253    0.73836521800926
H        11.86356072505160   15.94315264009641    0.37262002753293
C         8.30767553627729   13.54584350658627    3.66144108781069
C         9.53467351300242   13.20119951687838    4.48215128889715
C        10.55223007356058   12.46037300645324    3.88378041560209
H        10.46426812842921   12.16806498226068    2.84830063465771
C        11.67102746473533   12.08549274663273    4.60421538754270
H        12.45378186972964   11.52195079644700    4.11865447719483
C        11.78246650863849   12.41939692692190    5.94322029517677
H        12.65483869202331   12.12547696492326    6.50734898106850
C        10.75660859266678   13.11527381461220    6.55759552321403
H        10.81926487929754   13.35787239450761    7.60823555710604
C         9.63959223610279   13.50036622481514    5.83621138348453
H         8.84205790812929   14.02463978763436    6.34095663875823
C         7.70698285252459   12.22041720742453    3.24477558833693
C         7.82447747597303   11.74740527620203    1.94584726054215
H         8.35625602276634   12.33231453018786    1.20043361367040
C         7.29794988414447   10.51649751516238    1.59152156237511
H         7.39063556277279   10.16864223219475    0.57347932356827
C         6.66026674757218    9.73703854928026    2.53960322743943
H         6.24208241250965    8.78083141191039    2.26367211611856
C         6.57609918470256   10.18172469165407    3.84897520048774
H         6.10079032713568    9.56782221893506    4.59960332457692
C         7.10248709909990   11.41005479713106    4.20195813766696
H         7.05008331437038   11.74652070162401    5.22768886496073
C         7.32966972885351   14.48493959159442    4.34591238593640
C         7.80747348740295   15.69715381052742    4.84565411013007
H         8.86582774015577   15.91663016045569    4.78830855163280
C         6.95580916747385   16.61007520102568    5.43918833026036
H         7.35120363315834   17.53672367117651    5.82883298985242
C         5.59974639372009   16.34196809090379    5.52268747639363
H         4.93134601540496   17.05630077669366    5.97845228183437
C         5.10933716575686   15.15738761555437    5.00432197098979
H         4.05209937539903   14.94244075040909    5.05058485695056
C         5.96375040938408   14.23768678348289    4.41709955120698
H         5.55511501787828   13.31702522269586    4.02955318661263
C         5.58191745271254   15.93881102280890   -0.61468374274641
C         6.28653475953472   16.63663146250842    1.95883714484167
C         5.70032586135145   13.96391292252606    1.24225733500917
C         7.65902954787567   14.10325196511033   -0.72064271020208
C         8.11199324284441   16.73346815612574   -0.15679380058259
O        10.15838159817769   14.26302215602196    1.56469670037227
O         4.78390223996634   16.28021361454028   -1.35373404753177
O         5.88923662558978   17.43216563088340    2.67063716759078
O         4.91135909514826   13.17739104991157    1.48055960840108
O         8.06059990581074   13.40705320473604   -1.52660269678400
O         8.66056064622037   17.53198698566800   -0.75443121130635
P         8.67629593486672   14.59402004922087    2.13873053826742
Mo        6.95861947148820   15.34686120076594    0.63266130388299

