53
CSD_code = FAHMAD | q = 0 | S = 0 | Stoichiometry = C20H20Cl2N4S6Zn | MND = 4
Zn       -0.00029539437449   -0.00032311944457    8.04700464443052
Cl       -0.41929244500337   -1.82439343414781    6.88463265546165
S         0.01762873348970    1.94521082556380   12.57498529368167
S         2.78632865790491    0.11595862228087   11.62519843895922
S         0.32183564719518    4.16689847672902   10.60103110791784
N         1.16998089698741    1.74622952221612   10.17375432588453
N         1.52783268635290   -0.39748311554754    9.41664123150218
C         3.80616815762989   -3.65438857960368   10.54834351916037
C         3.05579089988902   -3.74658158289144    9.37911804520292
C         0.59766160525242    2.51368001990095   11.01685522618495
C         2.24933576678985   -1.52705372499351    9.69945705873236
C         3.79620922244791   -2.49962114339822   11.30901547598476
C         3.01329465945909   -1.44287217314202   10.87788132472469
C         2.27772728891395   -2.69393925320474    8.94242503373381
C         1.68365708015203    0.53475599681179   10.30945484234476
C         1.19945484891961    4.29644638608384    9.03187724417447
H         0.94812271938848    5.27272305377821    8.62987337588388
H         0.87374748843560    3.50312249546218    8.35653555442971
H         2.26618905099118    4.22486673002990    9.22030784948072
C        -0.83965706006531    3.39283679549835   13.24653516568750
H         4.40609670266998   -4.49317853404145   10.86697812367216
H        -0.13464280348206    4.20706179378144   13.37977660121640
H         1.69171059483621   -2.75452773935285    8.03888507397727
H        -1.64374888322770    3.68150485590473   12.57580965147287
H         4.37727603943030   -2.41527945072502   12.21374430514997
H         3.08330674677789   -4.65803061325329    8.80257299255700
H        -1.23978332340156    3.07546896232195   14.20437103080222
Cl        0.41851519672526    1.82337087165208    6.88400031566328
S        -0.01680589472436   -1.94485860051874   12.57476004399331
S        -2.78591050124523   -0.11569065349409   11.62576761691624
S        -0.32231225001003   -4.16704833957385   10.60157318610819
N        -1.17026558936076   -1.74634723489551   10.17401762930214
N        -1.52811059502126    0.39730982374594    9.41673608174691
C        -3.80554261671989    3.65470338389109   10.54888261136872
C        -3.05551810894012    3.74667728656668    9.37941887764525
C        -0.59765104376981   -2.51367877524594   11.01703872826001
C        -2.24935936530861    1.52701866577153    9.69965434784762
C        -3.79556396998332    2.49997357541734   11.30961980268830
C        -3.01295008353847    1.44306724826892   10.87832722988790
C        -2.27780676897811    2.69384873020602    8.94253790655566
C        -1.68376492690515   -0.53479370078563   10.30972324459164
C        -1.20084481263591   -4.29684526752335    9.03294216897420
H        -0.95017243350290   -5.27336894150213    8.63128182144588
H        -0.87513244579365   -3.50402137119241    8.35706433318131
H        -2.26738257458351   -4.22473955615428    9.22180802888974
C         0.84052428972390   -3.39249488424145   13.24624047423028
H        -4.40520138003434    4.49363162502769   10.86766322732163
H         0.13494351339221   -4.20595881878476   13.38169877038122
H        -1.69207724295404    2.75425640272345    8.03880212810988
H         1.64315546633264   -3.68260500169195   12.57431157430638
H        -4.37638054556814    2.41577773031633   12.21452368741124
H        -3.08300883115337    4.65811391594617    8.80285259804616
H         1.24268792964141   -3.07439018629203   14.20298837241675

