75
CSD_code = FAHPEM | q = 1 | S = 0 | Stoichiometry = C39H25N4O6Zn(1+) | MND = 6
Zn        9.37866919284208    1.39116427565501    3.41162683490758
O        11.11937587760653    0.34976838929774    3.19396875805760
O         9.29577661391243   -0.60218352629737    3.91090359391719
O        13.63122860378040   -4.32953675106358    7.34650889786403
O        12.87966759180808   -2.27118713398733    7.76015228118420
H        13.28203925001050   -2.45108695466795    8.62505195554405
O         9.52022312880075   -1.40431589290591   -2.96129956475314
O         9.02910296436879   -3.57770741362077   -2.86347204575357
H         8.74798117488730   -3.43986502630929   -3.78201724621199
N         8.67344655103994    1.02395697284483    1.48632732961151
N        10.11393883351043    3.09194368190568    2.45416706334918
N         7.52073477424663    1.86751572047873    4.27637995945222
N         9.96391241425180    1.77606698613746    5.40537526914008
C        10.51745542831038   -0.64780834506778    3.65096760308498
C        11.28443500137077   -1.89500835801984    3.96620402785615
C        11.79449963233699   -2.02441334463438    5.24717123086347
H        11.65685129557291   -1.23092122770234    5.96603090227684
C        12.48236135620408   -3.17672638339986    5.61158495727772
C        12.63892543547341   -4.20781391045720    4.68697679400972
H        13.17120939373364   -5.09715085206310    4.98770692707428
C        12.12178784993124   -4.07933103099599    3.41505716263940
H        12.25532856850739   -4.87191186419746    2.69422337739029
C        11.44746837706187   -2.91996491740697    3.03122478302631
C        13.05673750831794   -3.34352726782769    6.96595624105736
C        10.92778764597143   -2.78966477826060    1.66060858178578
C        11.22639036525895   -1.66532048950105    0.89101966871814
H        11.84361514790296   -0.88320294617407    1.30501679189731
C        10.75801390746120   -1.56569556094571   -0.40208223563311
H        10.99794786753392   -0.70872763783855   -1.01399008662631
C         9.98770051769449   -2.58849504982983   -0.95345756484375
C         9.69154386066671   -3.71578179615911   -0.19063762136781
H         9.09884623201894   -4.50839319821432   -0.61959074260581
C        10.16032620984440   -3.81209292391772    1.10387566426391
H         9.92424154244729   -4.68141684582124    1.69914949858359
C         9.50761855431492   -2.44439262739971   -2.34406508454295
C         7.95580682013485    0.01574541938033    1.03870696607265
H         7.54179947982698   -0.64256731971546    1.78977231433204
C         7.73071143823990   -0.20506615587955   -0.32220690802591
H         7.12032114017240   -1.03729586233872   -0.63349456922544
C         8.29721070445731    0.64369789500496   -1.24381992045330
H         8.16314837338814    0.49303687136434   -2.30355483029016
C         9.09532931209086    1.70785265605649   -0.78910769641457
C         9.24166173869148    1.86346266190145    0.60606722883965
C         9.75274583898129    2.61563697525579   -1.66900847389332
H         9.64091879286795    2.46131105240042   -2.73116432228806
C        10.50642751405861    3.63231600890033   -1.18455324234375
H        11.01031699364268    4.31483278937663   -1.85193428218928
C        10.65475792820277    3.83385382077249    0.21879891980713
C        10.01956629363057    2.95188897829052    1.12140009973064
C        11.41535720548380    4.88133543735730    0.76582833254161
H        11.92154005401679    5.57316189460620    0.10910875487640
C        11.49990747200143    5.00466569425073    2.13207355834770
H        12.07409530480075    5.79654638597811    2.58558465359850
C        10.82913415548771    4.08285102267894    2.94018918052588
H        10.87324622017479    4.15945514920989    4.01719212963303
C         6.33498906864504    1.94362585714449    3.71264168986260
H         6.31976217342772    2.03662995568104    2.63597319891102
C         5.14199275997864    1.91188767093511    4.43937100682614
H         4.19818976480041    1.98257588802441    3.92302060505265
C         5.19607231769634    1.77892948676737    5.80630830823021
H         4.29552697831413    1.73609992715456    6.40066926828959
C         6.44946814945938    1.69372783760167    6.43541864583000
C         7.59554069840304    1.75430912576716    5.61213593680672
C         8.89511128040318    1.67989112080931    6.21175484327078
C         6.60292132014630    1.53759904694039    7.84373224175736
H         5.71155376675201    1.49135368929191    8.45070618055769
C         7.83168936376374    1.43673299755445    8.40545887684344
H         7.94428060181370    1.30454481708595    9.47080991056246
C         9.01055539923857    1.50343112084072    7.60750557218178
C        10.30701723719576    1.39536274974809    8.14013122489143
H        10.43726552515792    1.24485286355757    9.20145019246376
C        11.38738969762442    1.47939527771144    7.29483658249440
H        12.39556170517892    1.39186010436135    7.66677202536834
C        11.16777630966049    1.67811915998362    5.92814424766002
H        11.99534443287964    1.74717795722320    5.23565758744150

