32
CSD_code = FAHVIT | q = 0 | S = 0 | Stoichiometry = C15H9CuN2O5 | MND = 5
Cu        3.74881611454622    8.04459120747797    7.79983867842920
O         4.04836879767781    8.07467044504936    9.55227653388058
O         2.20716186369335    9.02716701668774    7.85729697843641
O         3.75501392539577    8.83418390874767   11.58762075234797
O         0.80102768761750   10.37126302627856    8.86775556022990
O         3.50442228041861    7.72896462115817    6.03328183606711
N         5.49568563427007    7.13785434668119    7.53393900067251
N         4.34913939471128    8.42045960057745    5.28573480859921
C         5.98498307443664    6.41288974128575    8.51579807637643
C         7.27743217011205    5.88425110971157    8.48180797421866
C         8.10000559747726    6.22726029623302    7.43951919439188
C         7.60720603683035    7.01824409611441    6.38624209152347
C         8.41761251625598    7.41520354661724    5.30024855694228
C         7.91031875133977    8.19262930656598    4.30027033526979
C         6.54560114838079    8.53984607102208    4.27712692679475
C         5.86319824771760    9.07743840814556    3.13069041499500
C         4.66761718200868    9.63779390131254    3.38716736276183
C         3.98019816546056    9.51337612712032    4.54279171955976
C         5.69429791330916    8.11892200991236    5.32209403659034
C         6.23358361267471    7.40405180899460    6.42614359317420
C         3.62505964460041    8.97751966995344   10.39819132757480
C         3.00958533023545   10.23093300385548    9.78826247692700
C         1.89457738702463    9.87119033337384    8.80391597051069
H         5.34828228329552    6.28794607893062    9.38038869710322
H         7.61879285017070    5.26656660471740    9.29577593121761
H         9.13130541498036    5.90712931834186    7.41508186712042
H         9.44370486058923    7.08146310765845    5.27624758643829
H         8.53485313614161    8.51215441370116    3.48023602502306
H         6.29283256729249    8.98950563407235    2.14778468951212
H         3.11167920248813   10.06589281030358    4.85598087822301
H         2.61768295898790   10.87217293751787   10.57680851676524
H         3.79115424986093   10.75926549188352    9.23368160232349

