74
CSD_code = FAHYUK | q = 0 | S = 0 | Stoichiometry = C31H40N2Ru | MND = 7
C         9.50231028752832    5.08478823988022    2.73440312178510
C         9.59569041773485    5.49068679805919    1.40459607899748
H        10.52461681976125    5.32252150648985    0.87615157211689
C         8.52230037147778    6.09790894823095    0.77337103291592
C         7.35350893993262    6.31814107676620    1.49218212449012
H         6.51568079118823    6.79956931843192    1.00741825531841
C         7.24219329206294    5.93133209613943    2.82159651240090
C         8.32222211567898    5.31970293601283    3.43747320959635
H         8.26221863324633    5.00877697437992    4.47215633806080
C         8.61771802214113    6.53235950072843   -0.65957904930928
H         8.58787649924873    7.61963147104372   -0.72716839211680
H         7.77928988685245    6.14200779836662   -1.23464987080781
H         9.54354538823872    6.18478072015082   -1.11107332147181
C         5.96224189238659    6.16381762926802    3.56778325294736
H         5.60395009144198    7.17944536393810    3.41069492436815
H         6.09709873560277    6.00007221702425    4.63394661131804
H         5.19173936872537    5.48031310155527    3.21033028242166
C        11.40883426273498    5.33142152216558    4.05357268016755
C        11.08875712178179    6.80597848114299    4.09483881665139
H        11.00077544734197    7.20508427875679    3.08476933225379
H        11.86615316590809    7.35085770526983    4.62256075861146
H        10.13792571997047    6.97694104538263    4.59866706040127
C        12.54433924114162    4.89063097121247    4.72551070496713
H        13.13028324165669    5.63316334361737    5.24591211235855
C        12.99585486601245    3.57565365799453    4.77177860987734
C        14.26721831505676    3.28936645178569    5.53341815861214
H        14.06622248279355    2.63374221876393    6.38017461040359
H        14.70691022210000    4.21131886474998    5.90279194150269
H        14.98987959453713    2.78491517739415    4.89268712664456
C        12.92380621227026    1.29615016077540    4.28637337507219
C        12.66454072931879    0.51101812222296    5.40833498956601
H        11.98576695092164    0.88842356278427    6.16179983351614
C        13.25588089428379   -0.73357758541303    5.55217791479234
C        14.12202796856095   -1.18747563185858    4.56544163594047
H        14.58853200505084   -2.15670000059666    4.67367400724081
C        14.39997766866889   -0.41863166735900    3.44189988064880
C        13.80567257316310    0.82659054554843    3.31514979048073
H        14.01695601202730    1.45495676773734    2.46021250970695
C        12.96114770680808   -1.59177106772609    6.74626825907054
H        12.41913952328881   -1.03201696185180    7.50452233828232
H        13.88275588189220   -1.97278443132656    7.18286391877687
H        12.35408579352113   -2.44805084407414    6.45129703128906
C        15.34863078194904   -0.92706866270777    2.39658650131992
H        16.36654255092166   -0.94058555006282    2.78643679569711
H        15.32883636758932   -0.29500117538748    1.51215693918481
H        15.09134924201256   -1.94469084747775    2.10685723133744
C         9.05405154905432    1.12289735705849    3.19504122281774
C        10.21972492134520    0.37055931532069    2.81623833230200
C        10.68371437220844    0.89496290533649    1.58252479322895
C         9.76288223908498    1.92402337807649    1.15476073385483
C         8.73333739681816    2.02875911935542    2.12547749131591
C         8.13553424350947    0.77236876698129    4.32903391454339
H         7.56978767442922    1.64304013340568    4.65672232397496
H         8.69435287586442    0.38180185575477    5.17796322145433
H         7.42476606869273    0.00658939492186    4.00939892245105
C        10.62239392010948   -0.93332349579469    3.43578621379915
H         9.96593301567166   -1.72246672097923    3.06014202174445
H        10.52957962757626   -0.90617686765506    4.51888932838930
H        11.64728032628338   -1.19529101646113    3.18834867495631
C        11.73507796255892    0.29309367901481    0.69827882433677
H        12.43029399633182   -0.31285195076753    1.27329213446897
H        12.29671065492929    1.06374574161500    0.17171147217749
H        11.26008548242570   -0.34566283347965   -0.05010718263134
C         9.75008126626962    2.51505000668584   -0.22372795487916
H         9.36739822209929    1.77776990628849   -0.93342812571499
H        10.75333176085295    2.79587947335257   -0.54216611833198
H         9.11240070310886    3.39411485174746   -0.26665345117857
C         7.39140939581946    2.66741853020171    1.93212683876587
H         7.43987816901578    3.50068431984283    1.23672485257856
H         6.98352667965174    3.03127867122363    2.87210974758455
H         6.69937111701592    1.92355464278636    1.52885733143499
N        10.61379296682775    4.50497603028306    3.37328172899471
N        12.35568324069644    2.57739142916143    4.16228686719792
Ru       10.70981605523487    2.56269922880827    3.08751829300013

