92
CSD_code = FAHYEV | q = 0 | S = 0 | Stoichiometry = C34H53O4V | MND = 4
C         0.96915484702703   16.43924637851127    2.62114140833896
C         1.91654156929074   16.66387484106664    3.63887066944798
C         2.98630514709934   15.79461407083555    3.78230787505622
H         3.72615198731921   16.02090959258620    4.53019400730537
C         3.11844061162550   14.66827506335827    2.98861895314827
C         2.12175150080383   14.41970823208608    2.04920932053703
H         2.20135828007779   13.52971856695231    1.44986998740454
C         1.04797807142002   15.26791944114957    1.83624657740941
C         0.00026405184105   14.98251495918795    0.76494546299745
C         0.13713697120326   13.57397084496569    0.17259594184588
H         1.07200630283169   13.45993790208674   -0.37071692383445
H        -0.67488248651947   13.40319343497804   -0.53123520105529
H         0.07650081765469   12.81357815172417    0.94840989919286
C        -1.41166021165221   15.09394244575607    1.35965937290024
H        -1.52028077364480   14.41257808826032    2.20254353868496
H        -2.15197001037717   14.83230627240575    0.60580787606518
H        -1.61783770334960   16.10866182087508    1.69677189469029
C         0.17344515816497   15.99714690473033   -0.37444360746866
H         0.03809010998400   17.02098302095320   -0.02145823267573
H        -0.55686528511254   15.80410973190663   -1.15813458262467
H         1.17103554394349   15.91125311642877   -0.80241576763016
C         4.28575681030030   13.70050269795700    3.11423354919375
C         3.75227562739220   12.31683776137807    3.51094566556722
H         3.06778747026151   11.92765872317671    2.76260356394942
H         3.22203481574627   12.37647403404919    4.45910649798865
H         4.57544180552315   11.61346451916170    3.61867324587126
C         5.01173770101993   13.61056783068908    1.76469240261016
H         4.35526745889142   13.23556544007613    0.98487779024214
H         5.86558170555022   12.94040662678619    1.84170311881310
H         5.36876814616021   14.59367117552534    1.46559941905996
C         5.30364094738692   14.14123242671296    4.17011945066022
H         6.12313806375826   13.42598270901168    4.20457570216547
H         4.85152717541737   14.17850033777168    5.15866002023926
H         5.71896974713585   15.11671257970896    3.92728677066989
C         1.76206664450411   17.85122051983142    4.57707330764585
H         0.74536467259856   18.25672328536622    4.44874030425541
C         1.86762475483141   17.42780292653622    6.04530304095424
H         2.80221564768236   16.92156565208990    6.26686533895515
H         1.05543526947239   16.74376101130616    6.28427234239883
H         1.78791851266152   18.30214589255690    6.68866968522843
C         2.34333298402787   19.89199794295156    3.23048744992795
C         2.74151572490013   18.94327950114576    4.19559096510613
C         4.00714467037722   19.02973162225404    4.74276270255695
H         4.30608031659431   18.29807030541284    5.47497729288039
C         4.89399136042449   20.03567505304800    4.37959934594403
C         4.46713041612479   20.97575639054800    3.45121161018912
H         5.13831274538503   21.76571806521584    3.17018774854457
C         3.21055986485946   20.93850433829690    2.86267161480844
C         6.27699300231908   20.06915791245703    5.01396414313763
C         6.99286807203623   18.74152720383745    4.72637129716028
H         6.46368018732651   17.90023747849727    5.16473087252189
H         7.99905233819704   18.76050221354638    5.13996881652027
H         7.06285364718247   18.57856577331947    3.65303738981515
C         6.12658079866533   20.26069007969893    6.52979972309275
H         5.61122531877125   21.19542552759085    6.74011161563121
H         7.10549452535691   20.29159135263002    7.00374792772150
H         5.55681996961595   19.45077523852530    6.97668847252241
C         7.15128327998562   21.20428302190430    4.47436872595331
H         7.29793017322734   21.10765559928820    3.40126564188191
H         8.12846093453341   21.16664856212594    4.95186260412686
H         6.71183375681496   22.17525639894333    4.68984708382727
C         2.76532644823869   21.96894519500910    1.83077208071317
C         2.55031785595001   21.26453865500840    0.48230201554331
H         3.46601266940410   20.76319567977454    0.17248500324825
H         2.28334312231692   21.99612739115538   -0.27801465926211
H         1.75057266910074   20.52332694484853    0.53632048176874
C         3.80331991393642   23.07865523646769    1.62428573034368
H         4.00293053260191   23.60972754670207    2.55241781023396
H         3.41859150433195   23.79658950156001    0.90298591733786
H         4.73515290184299   22.68016320555341    1.23052305009295
C         1.45867723757254   22.63422568967543    2.29047978044955
H         0.64669960476367   21.90897898363914    2.35146698626984
H         1.16779797365257   23.40606917404702    1.58030768667678
H         1.59477109961967   23.09611987514482    3.26768599161642
C        -2.75285250243979   20.00701163321791    2.22749934669327
C        -3.70375689114434   20.27757399787263    3.40420867450258
H        -3.90321197435211   19.35078647569523    3.93900347171381
H        -4.64240189658426   20.68912165399136    3.04366436259814
H        -3.24647714536018   20.98446868286132    4.09416171917512
C        -3.36351688762649   18.97949404700010    1.26039619669078
H        -2.62510726710598   18.75708069605827    0.48621850240627
H        -4.26945429591284   19.36922200650131    0.80358687795135
H        -3.60001941158524   18.06182010289670    1.79905381423956
C        -2.43881969536656   21.30973207884312    1.47331619376929
H        -2.04160070895040   22.05217163743525    2.16529712803308
H        -3.33307518074162   21.70578951714370    0.99963861830592
H        -1.68481852908389   21.09119179937407    0.71313154575510
O         0.03933926246372   17.36184481203143    2.42408842127048
O         1.14616475271713   19.74161132954450    2.69576575553548
O        -0.13767894503721   19.15651023241115    0.55960672999496
O        -1.56098114477645   19.48844204601838    2.71280073430017
V        -0.12440663521499   18.96127556076675    2.07870130198703

