97
CSD_code = FAJBUP | q = 0 | S = 0 | Stoichiometry = C51H37Cl5OOsP2 | MND = 6
Os        9.65122753418921    7.00711289732239    5.97223357716616
Cl       11.12648415260202    6.81186837254667    7.93322988012016
Cl       11.43962932808775    8.21178583720069    5.03546005780201
Cl        9.62667845946429    6.88439138797798    0.08508180922832
Cl        6.60604810389062    6.25819698388637    2.23494697056251
Cl        9.97526404212691   10.49897755245071    1.96524324305942
P         8.93232291120698    9.06415386879372    6.92397240759013
P        10.52222802742598    4.92147883645060    5.28961483639248
O         7.09124191491810    5.66179587540135    6.81081179364122
C         8.68558851481334    7.46848857442634    4.21081309823570
H         7.60887492358588    7.63825072522089    4.29187238300065
C         9.17185546635473    7.78949345172638    2.99648962969802
C        10.56345225948152    7.65194393109700    2.53770433562676
C        11.66996411596961    7.86844449904108    3.36980900666386
C        12.97558204458010    7.84272662044813    2.91113605307950
H        13.78138962292202    8.05092019259254    3.59669691968615
C        13.23088397256143    7.54430279959745    1.58678595622062
H        14.24423864368282    7.52258970220315    1.22012941169364
C        12.17545345891174    7.25775525364040    0.74106749039858
H        12.35156124530948    6.99252297157312   -0.28924790397197
C        10.87488124538627    7.31182486962668    1.20963140037042
C         8.23486176800124    8.41774802881948    2.03051721345601
C         8.50456207851841    9.68779885707512    1.51622365181494
C         7.62733260198264   10.34787108993992    0.67430566473275
H         7.88129189893686   11.32671901586923    0.29898255520047
C         6.43157190753111    9.74257968880736    0.33176304627600
H         5.74077284695685   10.24777514469876   -0.32487882170897
C         6.12189058505633    8.49030135607179    0.83180126805641
H         5.19513355411145    8.00570974599844    0.56996729859562
C         7.01289776085188    7.84250902343745    1.66970849927721
C         8.10611189518093    6.15309347988796    6.54596117012286
C         8.51810246776162    9.06845096971011    8.70116269378855
C         8.32388786697586    7.87828920846526    9.38999146020343
H         8.44344776609388    6.93781837364230    8.87117078231568
C         7.99981112908797    7.89858714118746   10.73504751144648
H         7.85696165723748    6.96946449800175   11.26664281774300
C         7.86550981130387    9.10618420660560   11.39834884437735
H         7.61845344846039    9.12187774125247   12.44971980950134
C         8.05163631112211   10.29690978838909   10.71355889669944
H         7.94626953977783   11.24031485534341   11.22942765281783
C         8.37677711575826   10.28187470929302    9.37066774783491
H         8.52256378980271   11.21182779364216    8.83780491030238
C        10.09663872818327   10.47327494643617    6.88328738962471
C         9.78309575486589   11.73731687527655    6.39605379361573
H         8.80055687164474   11.94306839696075    5.99677181487513
C        10.73056384984426   12.74596129652948    6.43349891214266
H        10.47976301772017   13.72536653355366    6.05230316384400
C        11.98911564362614   12.50728385192528    6.95850785522168
H        12.72364011477587   13.29888031582720    6.98224705059323
C        12.30007975197048   11.25403737777407    7.46113948807139
H        13.27632055939120   11.06518994386226    7.88299781803193
C        11.35992747809764   10.24215516461817    7.42603327546849
H        11.59777694489364    9.26486770889496    7.82636848702366
C         7.40590492677909    9.72588633632182    6.18264736479633
C         6.17755860290219    9.61815335194410    6.82424454302412
H         6.12678814562273    9.21276804165291    7.82496406116401
C         5.02221228384234   10.02598858519454    6.18071405085728
H         4.07102337229230    9.94258024639825    6.68563639439538
C         5.08082116520803   10.52985203161954    4.89216799600968
H         4.17632871493083   10.84169975267202    4.39136687069474
C         6.30013664346600   10.62428777334132    4.24033665675203
H         6.34973335233270   11.00289672174095    3.22982701367618
C         7.45568363477902   10.21768525762830    4.87898887253099
H         8.40649829018882   10.27447966184831    4.36706361046224
C        12.18887751191474    4.92693449477569    4.54159064151998
C        13.19315097055630    5.47817223108566    5.33805806651332
H        12.94299035796045    5.86376569918745    6.31866916793841
C        14.49820768168144    5.51469516170277    4.88757756082949
H        15.27173854783099    5.93587198752621    5.51325106675113
C        14.81364800578724    5.00662706656787    3.63702726985103
H        15.83374983200780    5.03419155427879    3.28302551509538
C        13.82084559149419    4.45453899367796    2.84627614669842
H        14.06561133964093    4.04743194223643    1.87610784820892
C        12.51140556654928    4.40891043930306    3.29352958863423
H        11.75087543387651    3.95479689817046    2.67620834342815
C        10.80151435291911    3.71410872559300    6.63377014338656
C        11.73867579297629    2.69611245228987    6.47897791507559
H        12.32095818470544    2.62962689865710    5.57032626325872
C        11.92877620051169    1.76915144203004    7.48717198640940
H        12.66185964578958    0.98550340750409    7.36174549635288
C        11.18656838802933    1.84548421351607    8.65425833707295
H        11.34413044207341    1.12473215992781    9.44312439596297
C        10.24341522273551    2.84765016454121    8.80744232195269
H         9.66111373385358    2.91016056016322    9.71486557890419
C        10.04903321181304    3.77606015442751    7.80108323089960
H         9.31940981761845    4.56425925150135    7.92204118761628
C         9.49172374892215    3.93703009801865    4.15291234345418
C         8.78427565407413    2.82358342671203    4.59451518168261
H         8.86872837205661    2.50173657467982    5.62255290142191
C         7.96866832298544    2.12757395287824    3.72013020499808
H         7.42147340588262    1.26523456879496    4.07211545110019
C         7.85092070223943    2.53157757525405    2.40094802627648
H         7.21623253682166    1.98300236488426    1.72076891826324
C         8.53998153838116    3.64883611342477    1.95911378971242
H         8.44357164441980    3.97856240212389    0.93507176184875
C         9.34400955751814    4.35516434619393    2.83312148887358
H         9.85839305248603    5.24110258272618    2.49577834520653

