98
CSD_code = FAJCAW | q = 0 | S = 0 | Stoichiometry = C51H39Cl5OsP2 | MND = 6
Os        4.93195757503165    6.13933304716836    9.02600745873500
Cl        6.25293893203793    6.90520506193639   10.84964034641570
Cl        4.52248297358227    8.32727692194200    8.38225310788768
Cl        3.91019902250110    5.27001508454791    6.99803209658255
Cl        3.17461338083841    0.56832245657737   12.40740333501220
Cl        6.94673229897565    0.55703833345711   12.25175360150608
P         2.91843867386758    6.61301769974798   10.17665920415610
P         6.99038123706466    6.11328613838560    7.80181043338614
C         5.05807293946625    4.37328782715131    9.44604888621845
C         5.10192097359145    3.01208092193861    9.43369611716643
H         5.24985493492326    2.58696155103716    8.44098998785584
C         5.01578769875968    2.14483831446123   10.49416699429556
C         4.85111117777236    2.64821469074191   11.85126755528685
C         4.05210655012946    2.00471199371889   12.80404596428622
C         3.90130579039900    2.52011354311852   14.07927670617258
H         3.26828431971245    2.00491344639273   14.78478266382879
C         4.56366656877388    3.67970492117599   14.44099438597570
H         4.45418350818905    4.06782382385784   15.44216228220309
C         5.36506914561485    4.33118942953233   13.51682350679522
H         5.90202089710822    5.22765827366840   13.78582825407970
C         5.49397562166525    3.82724304547718   12.23926026342871
H         6.12369382234071    4.33858163001888   11.52564796932507
C         5.13189263462782    0.71179138942936   10.23056785551628
C         5.98069069552644   -0.11002363707431   10.97915288845185
C         6.10442060286111   -1.45860174957493   10.69474335971072
H         6.76889507074377   -2.06621527663624   11.28875022190823
C         5.38021539665458   -2.01390751511798    9.65437847506524
H         5.47215835133199   -3.06780894635423    9.44167642257831
C         4.54575099816660   -1.21487721799412    8.88943363390086
H         3.98208296576963   -1.64299180294916    8.07468952075457
C         4.43126686637961    0.13160577175509    9.17088965671227
H         3.76662799675088    0.75294793342025    8.58914136103244
C         2.14583855745719    5.17084453218417   10.99181195480595
C         1.66132007541915    5.14282457679533   12.29227114002438
H         1.76364431871421    6.00582405155750   12.93441871727583
C         1.03826775815082    4.00246092096223   12.77027978228798
H         0.66666733280283    3.98378953356952   13.78452061346649
C         0.88084454070238    2.89593429571996   11.95464388280163
H         0.38915656701210    2.01200715920862   12.33241562813637
C         1.35189542350951    2.92454362192075   10.65120255092292
H         1.22466281051270    2.06335221251282   10.01188260119097
C         1.98153150822719    4.05602622079738   10.17197998824977
H         2.34641920592418    4.09757895033977    9.15209568593125
C         3.17007799784851    7.84663040762861   11.47786999477309
C         3.80567335070201    7.46024775238984   12.65588243999171
H         4.09369811296405    6.42653318741138   12.78721188088042
C         4.08179606967616    8.40086406494024   13.62967254131280
H         4.57365768991401    8.09979749894329   14.54314561015422
C         3.74600125644428    9.73018868975582   13.42710153701239
H         3.97089049693944   10.46539470011366   14.18599585490831
C         3.13820952016583   10.12051532967705   12.24540508103014
H         2.89420415060995   11.15966588823809   12.07892640104921
C         2.85235491988423    9.18461379430324   11.26770696553312
H         2.39470801164393    9.49202677901968   10.33731604032606
C         1.44902428587135    7.23489858050405    9.29538630844531
C         1.37181341197428    7.32611950515895    7.91304006121734
H         2.20769964304819    7.02647358776093    7.29881201068619
C         0.21206494659734    7.79702095736193    7.31936363566816
H         0.15809433218722    7.87083635441263    6.24341218524488
C        -0.86968514419133    8.16981663974743    8.09673628205644
H        -1.77094866158742    8.54031212686508    7.63049539998051
C        -0.79967066438104    8.06397882231918    9.47805585510493
H        -1.64536103446777    8.34792322926695   10.08755964628145
C         0.35204676755044    7.59553890648268   10.07769120437510
H         0.40975096190084    7.51071861095376   11.15501009899915
C         8.35321534214718    7.18240393023752    8.36235657582531
C         8.06565327627155    8.52610730364178    8.58261119021077
H         7.04975987092087    8.88202795938735    8.48039461770255
C         9.07222708786894    9.39979739494257    8.94682833003099
H         8.84176676365495   10.43937424645598    9.12729009987182
C        10.37226245751238    8.94132314861325    9.08252040207586
H        11.15937718315812    9.62303120922328    9.36977290072450
C        10.66315683385934    7.60756624808960    8.85019698595191
H        11.67727316263357    7.24884823139975    8.95250018995680
C         9.66018384494569    6.72602326664452    8.48881645763092
H         9.89572240632479    5.68555128135567    8.31431886386020
C         7.62959704319340    4.41694903871551    7.94465588269181
C         8.11166014093346    4.01240345214290    9.19032719258803
H         8.20705745923512    4.74493349584545    9.98186210219290
C         8.44335462276677    2.68949202811497    9.41033937358227
H         8.81601249915012    2.38030604407497   10.37549983642786
C         8.27960403292971    1.75633294504359    8.39742529253826
H         8.52501059158753    0.71948140816294    8.57426509524753
C         7.78708429255284    2.15137457045494    7.16459995704801
H         7.64852341273134    1.42193921363012    6.37981529405950
C         7.45672171050182    3.47713568703724    6.93495786696499
H         7.04890036347496    3.78101937487456    5.98121065943135
C         7.05847372886146    6.50046831832141    6.02411857459175
C         8.21119392695774    6.15932729561793    5.31851099811913
H         9.01422025368343    5.63612818900052    5.82012974603803
C         8.32278835237519    6.48748351847235    3.98188470867475
H         9.21420484330701    6.21617573908807    3.43496073292880
C         7.29475459577441    7.16594606974098    3.34434065258335
H         7.38542126638179    7.41947037848248    2.29823259212028
C         6.15836933085186    7.52173464759858    4.04889449255596
H         5.35996569755542    8.05596244570926    3.55586106189540
C         6.03797888651942    7.19514796800133    5.38901448971092
H         5.14955657848910    7.47439535805542    5.93469268781948

