83
CSD_code = FAJCIE | q = 0 | S = 0 | Stoichiometry = C41H35I2O2P2Rh | MND = 6
Rh       -0.17368715256822    1.80434284432923    3.63512166619254
I        -1.31627429356297    3.78957444689244    4.98181226203289
I         0.69031417938104   -0.14317168927054    2.03796207104245
P        -1.65107593764752    0.31854529594877    4.60212007651347
P         0.62588858989384    3.30268148890143    2.07245008253915
O        -2.03308041043579    1.94562011320687    2.12272959962764
O         2.43977478963221    2.20269997958209    4.34541099702555
C        -1.91515893833941    2.68895504324888    0.98779383644822
C        -0.69453610315020    3.35173275553363    0.79765194856508
C        -0.49673608215207    4.07209784258980   -0.37477535636937
H         0.45389387327701    4.55931422709663   -0.54132392511447
C        -1.50083429283241    4.14925262358695   -1.31945940388846
H        -1.34330504735419    4.70635342846662   -2.23026520813150
C        -2.71204543586885    3.51865325306551   -1.09617886913762
H        -3.48862457616436    3.60371051055424   -1.84030949334089
C        -2.94395038049580    2.77621698243161    0.05383780593318
C        -4.28249943613179    2.09907882673617    0.28354520281658
C        -4.29686364372578    1.32521337497278    1.58891594735864
C        -5.43537068338369    0.64425609462512    1.99753815393301
H        -6.32401232971651    0.67851771922564    1.38669415428090
C        -5.46546968375689   -0.07212108252312    3.18087608178685
H        -6.37090769924658   -0.57543075402770    3.48340163625582
C        -4.33517661823164   -0.15166846734676    3.96975451499251
H        -4.35180267107670   -0.70698453011801    4.89708985308686
C        -3.16747240366516    0.49828908544641    3.58482677258689
C        -3.17179671557591    1.25989120641648    2.40698554584565
C         1.40402875334924    1.83630212484909    4.82598794297849
C         1.24997754172096    1.51021667271071    6.29279451228688
H         2.07687922418227    0.86844880159954    6.59747167578801
H         0.29718491177125    1.05289950437998    6.55375450340054
H         1.33405184801808    2.45503891185340    6.83329297137305
C        -5.37473027561908    3.18144128574564    0.33104127011901
H        -5.18825274939262    3.86650790250553    1.15644512053396
H        -6.35526112985054    2.73478367633202    0.47031393921996
H        -5.38917473625965    3.75327761722598   -0.59275538451235
C        -4.54704605262708    1.11344871422545   -0.86782399720448
H        -3.76211785367153    0.35979224291337   -0.90320196077152
H        -4.56875272758259    1.63175123701029   -1.82233931073715
H        -5.50032915671060    0.61006523977386   -0.73195906445635
C        -1.29156856911820   -1.47282710714287    4.52611573992948
C        -2.13181407973720   -2.42247699290534    3.96254387038093
H        -3.06148835305982   -2.12974925245258    3.49757464887183
C        -1.76767437042559   -3.75822975678996    3.97016752127858
H        -2.42632963150439   -4.48954188197553    3.52510689726324
C        -0.56781027125122   -4.15624494600578    4.53152266820025
H        -0.28940470224628   -5.19933435332829    4.53184925425634
C         0.28815008770912   -3.20945299248770    5.07011508875330
H         1.23965516613971   -3.50902258931390    5.48362508675742
C        -0.06786866925178   -1.87571428136812    5.05963162892678
H         0.62452468389975   -1.13188829681997    5.43403103899161
C        -2.35809481182837    0.44106557573267    6.28390588700071
C        -1.84374698592784   -0.32298535235391    7.32777187069835
H        -1.06316270179958   -1.04762208029949    7.14032610337356
C        -2.34180707929890   -0.17652777626787    8.60978554640803
H        -1.93694141405897   -0.77823807708726    9.41035049047474
C        -3.35030465850448    0.73689900398199    8.86563005023747
H        -3.73292588836607    0.85335003817527    9.86848996265871
C        -3.86639046823245    1.49944223049037    7.83116675818298
H        -4.65132620733108    2.21534201021882    8.02216060917781
C        -3.37447668790697    1.35607627851289    6.54800392338006
H        -3.78319695311769    1.95883109125180    5.75054776088771
C         0.81568938837631    5.05561705290709    2.55513785515071
C         1.67229646938274    5.32552834194603    3.62180657981293
H         2.16470641547030    4.51124589219085    4.13611284073791
C         1.86848411533299    6.62314478064994    4.05162434300082
H         2.53481190716654    6.81942145226040    4.87860209344413
C         1.19750256644613    7.66616907845754    3.43491111890459
H         1.34485709425556    8.68076776072484    3.77361536419875
C         0.31874626576105    7.40046088133326    2.40029212799504
H        -0.22799280877470    8.20638973359191    1.93278560683733
C         0.12177092629784    6.10239650903275    1.96201835051428
H        -0.58808808471400    5.91504073506976    1.16978110492304
C         2.11425288876696    3.04650054289583    1.05150817397072
C         3.34488881557299    3.54315426646855    1.46642774805354
H         3.42252877000945    4.11706933383674    2.37644352562893
C         4.48067385105859    3.30081425875934    0.71540527229260
H         5.43175110046346    3.69066506020454    1.04757521421688
C         4.40252184032532    2.55769146362090   -0.44977827415507
H         5.29211577431481    2.36549039210655   -1.03115888638857
C         3.18040624177967    2.05447086090171   -0.86323951969760
H         3.11131962518409    1.46496188970404   -1.76526572977661
C         2.04218973483442    2.29173597401181   -0.11725606972428
H         1.09822117345218    1.88061869685527   -0.44529941693666

