54
CSD_code = FAJDUR | q = 1 | S = 0 | Stoichiometry = C20H23N6O3RuS(1+) | MND = 9
C         1.81900505089239   12.24586107004844    9.80093721722905
C         2.65739322950095   13.37180937342595    9.83206202856734
H         2.41130111773218   14.19838275994791   10.48865761930501
C         3.73583518950493   13.51329372344835    8.91913473260920
H         4.29326264822098   14.44421579579160    8.88902630689154
C         3.99287470125293   12.53271870514021    7.94713845996068
C         3.18665134560574   11.35712944035272    7.95422920822921
H         3.32313563995289   10.61277004958427    7.17636169813395
C         2.12299608440970   11.22050611786808    8.85655965474075
H         1.45301901370139   10.37176816620059    8.75834005422555
C         0.57587340806237   12.17626240215612   10.65337364670890
H         0.17684329387172   11.15748016156348   10.60550493428730
C         4.99728146645176   12.78528043457758    6.86660362203259
H         5.11561682228747   11.92289579489960    6.21555716328642
H         5.96751482875394   13.05866221302366    7.27899502867136
H         4.65698380979679   13.62162902428295    6.25429084822321
C         5.92321993318259   10.16805859673718   12.15908823690585
C         6.41429711080637   10.11073412644011    8.69276578490308
H         6.08593050148317   10.37374671266868    7.70635895092349
C         7.51557882186125    9.30140539618079   10.42917888481808
H         8.16959483354670    8.83687688950939   11.13873041005100
C         7.54036382312301    9.36997196200325    9.05407811998699
H         8.26881874568100    8.94318541499076    8.39718166705826
C         2.56664800992184    9.28542132459144   11.69061269767282
H         1.63777927135692    9.41685223953129   11.17027787092939
C         4.17826563498901    8.60039145349613   13.03808443216269
H         4.82814514773385    8.14294460072731   13.75608136074329
C         2.85985247568579    8.37752619322855   12.70872365818586
H         2.19709417429865    7.65747518505415   13.14065574160185
C         5.18870606528514   13.58936052278384   12.12075707784497
H         4.67594856372945   14.42218192641948   11.67839052418152
C         6.44849573857241   12.28911150878560   13.38858735738517
H         7.10143702238177   11.82171280465383   14.09733452747654
C         6.05041029801327   13.59666694190846   13.21818832354088
H         6.34072496028915   14.44340356744838   13.80398363445730
C         0.86646545828512   12.51685750889018   12.11731986465985
H         0.00913701997122   12.25600172936689   12.73097790296840
H         1.05371311431702   13.57950415532394   12.24621122317432
H         1.73213739552134   11.96198862794401   12.48121676055743
C        -0.48187141940098   13.12075336908623   10.06826439548023
H        -1.39707740349605   13.04635606020513   10.64828723641687
H        -0.70656338572945   12.85871177172666    9.03692842183219
H        -0.14051910882842   14.15253973670008   10.09675539411775
N         5.74682613438467   10.47472468059448    9.77880337110278
N         6.42510628109245    9.97531072270061   10.83120089236117
N         3.63722249460934   10.01959786345299   11.41871676599462
N         4.61388986736120    9.59280384474437   12.24418052406690
N         5.06861758767252   12.35425129532717   11.65139206611727
N         5.83959158954259   11.57129936228413   12.43036655245348
O         6.42236392358387    9.63363045440899   14.67020897344298
O         8.32811663826576   10.03178735827542   13.17883207588939
O         7.04206102264669    7.95242530864183   12.99680414787597
Ru        4.01213583129174   11.54727715585432   10.08272948697744
S         7.13134817696458    9.30108639498896   13.47087246058818

