81
CSD_code = FAJDAW | q = 0 | S = 0 | Stoichiometry = C33H45N2Rh | MND = 8
Rh        1.67204472061299    0.90988367158043    5.33171277356706
C         1.26680062897957    2.83595627076617    4.85033305682127
N         0.84947778014255    3.79529099856969    5.72180437160294
C         3.19691828247848    0.80709080290647    3.93526790156576
H         3.77295524433903    1.72011428636521    3.80565447130344
H         2.77679691407350    0.52530886994593    2.96664943318361
H         3.89463644245709    0.02844311477075    4.24634631920881
N         1.48478116074268    3.51908305982103    3.69196704741157
C         0.33904698675302    3.62641935909143    7.03664003318763
C         0.91744146002221   -1.26680687088507    4.74086641731507
C         1.88341326131562    3.03819945769812    2.41802361785542
C         3.13350623581899    1.63760627700338    6.59149334647267
H         3.67050438462727    2.51821042569199    6.23891069179795
H         3.87379269808405    0.85428622730129    6.76195395155230
H         2.65633460009699    1.87610942911631    7.54534686507163
C         0.80768866989800    5.02961346270333    5.12295128128701
H         0.49199434015727    5.90499424538945    5.65274052979121
C         1.02385857441324    2.21372083867722    1.68984939651698
C         1.83674681276104   -1.23178429461540    5.85005311911230
C         1.07943457452520    4.02309962060222    8.14724464444217
C        -0.98523247652136    3.20006156958342    7.17075270058875
C         2.60329990459936    2.22238195486173   -0.14366937174564
C        -0.30383761049894   -0.70800790651794    5.16931326475534
C        -1.79685000016662    2.91218656341360    5.94545806050800
H        -1.32076561039680    2.12315845127525    5.36393446660087
H        -1.86123817972216    3.80094767947362    5.31559500578880
H        -2.80448415852892    2.60446071096473    6.21169031700550
C         1.14937879532285   -1.97182873789521    3.43658808245171
H         0.80084693446023   -3.00517308776761    3.51145191483823
H         2.20603277749837   -1.99035310810154    3.18105310811895
H         0.61274708056982   -1.49348194275350    2.61828505483438
C         3.07439590676484   -2.08055283042347    5.95539250556059
H         2.80864470319491   -3.06767543355825    6.34180848168822
H         3.80466948291952   -1.64114571629331    6.63246069642447
H         3.54742459636209   -2.21641473213021    4.98561058019908
C         1.10511851239619   -0.75140073628435    6.99122621338922
C        -0.26863642384265    1.76279483172749    2.28894045916936
H        -0.05440750985144    1.16074613814129    3.17754946206803
H        -0.83747707821322    1.16570085233889    1.58137865355216
H        -0.87435620990587    2.61529717767860    2.59615748110430
C         1.20956164543096    4.85639930061234    3.84907875622560
H         1.30521526625682    5.55270459603533    3.04183062227619
C         3.43379641638743    3.05050045885817    0.59591619928972
H         4.37398713087318    3.37404819021148    0.17256951046116
C        -0.18620113197674   -0.39157456882043    6.57036371383431
C         0.50730698443863    3.88199202585758    9.40620530823290
H         1.08599803992474    4.16626074661854   10.27369362963009
C         3.09245804887089    3.47112161423901    1.87279920515968
C        -1.52745366736744    3.09577560638425    8.43956045605764
H        -2.55172801130508    2.77029194455953    8.55338816728576
C         1.40283942476117    1.81291279366509    0.41892340953649
H         0.74546853092814    1.16787458709591   -0.14672986628046
C        -1.33392988956488   -0.12122545659034    7.49402726512660
H        -1.65814379970371   -1.06180859730059    7.94828118143287
H        -2.18379649335512    0.30240025011368    6.96622837339998
H        -1.04815790931795    0.55495375903482    8.29738265794032
C        -0.78365552856317    3.40936191962294    9.57116812327813
C         1.56119192551028   -0.80754615299449    8.41714609139305
H         1.21122015181487   -1.73573624579952    8.87639819648918
H         1.15905593891511    0.02478364367019    8.99388511876407
H         2.64569761136475   -0.78457477680013    8.48736381600419
C         2.43560136547806    4.64931592807292    8.02144947349664
H         3.12204150950934    4.22367378577330    8.74989246660244
H         2.36156549065316    5.71977824267800    8.21895434843296
H         2.85024866792278    4.50917268073981    7.02836435138565
C         4.02615095697178    4.35836712016705    2.64223178378311
H         3.95404326108331    4.16862541955012    3.71086647033852
H         3.79461076527282    5.40927841219570    2.46549544150089
H         5.05183741689969    4.18547929280387    2.32567881336635
C         3.00549389787793    1.75707254711112   -1.50984541176923
H         2.13227370757144    1.58793389788730   -2.13563470635398
H         3.55239556208820    0.81682387653532   -1.43366323762883
H         3.65299035057905    2.48447986533857   -1.99371804059625
C        -1.60645221212186   -0.76710082482647    4.42520867918176
H        -2.19152411057002   -1.61494370878116    4.79090591057899
H        -1.44670320608132   -0.90928019843527    3.35898933802372
H        -2.20776502214277    0.13083956528316    4.56571358527481
C        -1.38261294674572    3.24499164630177   10.93465199406308
H        -0.77828793963419    3.74125172362489   11.68964696933914
H        -1.44634050623133    2.18654323511607   11.18814576335983
H        -2.39074490145502    3.65434090449024   10.96389966609230

