37
CSD_code = FAJDID | q = 0 | S = 0 | Stoichiometry = C18H12N4NiO2 | MND = 4
Ni        6.60652041948567    5.66348793781426    4.03621528422330
N         5.67552250514713    4.50586737873347    5.30958003335063
N         5.74813255307173    7.03050362045308    4.91529792804750
C         4.77526311866755    5.22089418197377    6.01450577796421
C         3.93373537463265    4.64591311230758    6.95630794960719
C         4.02645852570621    3.28914221775563    7.20643512646678
C         4.98918306841788    2.56337086228472    6.52181345193662
C         5.78676155369020    3.20885395163527    5.58994908422629
C         4.78330328304937    6.71488992877937    5.79542511690774
O         4.01884887865166    7.45720515487982    6.39448176877824
C         6.11209989510627    8.32896923700046    4.53920750584875
C         5.62345839499491    9.52337525006103    5.04600764239327
C         6.12336321957467   10.71113492187787    4.53262639220678
H         3.23680162869169    5.29016808607031    7.46961834335111
H         3.38115349164482    2.81050457935462    7.92724922246741
H         5.12637779855550    1.50897095775477    6.70270641768686
H         6.55509402331268    2.65217943989743    5.06986511270699
H         5.74854249033720   11.64876175217396    4.91579027780343
H         4.86912017508524    9.51890574360570    5.81516043880672
N         7.53751438591003    4.50587048531764    2.76284266713475
N         7.46491392083571    7.03050492839901    3.15714148277297
C         7.10095313157122    8.32897013655221    3.53324057819872
C         7.08969965854906   10.71113590181740    3.53983724814572
C         8.43777701507710    5.22089838146167    2.05792270626638
C         7.42627051841769    3.20885924112117    2.48246508664456
C         8.42974299147433    6.71489289743069    2.27701333663253
C         7.58959957777569    9.52337751068050    3.02644829003326
H         7.46452440080323   11.64876357559120    3.15667920596890
C         9.27930308979170    4.64592042981004    1.11611674315347
C         8.22384661625038    2.56337955443294    1.55059629547720
H         6.65793605556995    2.65218354573060    3.00254476006024
O         9.19420225542592    7.45720842430449    1.67796332622169
H         8.34393773045140    9.51890971415746    2.25729542691707
C         9.18657395200833    3.28915191157324    0.86597955766731
H         9.97623940771288    5.29017677782774    0.60281169130126
H         8.08664758910966    1.50898137916588    1.36969656794770
H         9.83187730544221    2.81051689021291    0.14516215467620

