49
CSD_code = FAJFOM | q = 0 | S = 0 | Stoichiometry = C15H26ClCuN6 | MND = 3
Cu        4.24288956866011    4.43152359397147    9.33638940662002
Cl        2.45962153327007    5.67042772164007    9.06071613457643
N         5.26736067374185    2.78248978019423    9.85264778164754
N         5.94040455544677    3.71067552418762   11.86264174783324
N         7.47165413103394    2.49000772610524   10.58479309095976
N         5.77553679915640    5.74926136677315   10.08209527227351
N         4.66875188707371    5.76410748161659   12.08815290208018
N         5.12559231980487    7.80305283960925   11.04718936872648
C         6.21904160854030    3.01644881366390   10.71348386300995
C         7.01926658176780    4.19070191259667   12.69686666884344
H         6.58620393226707    4.52550336654534   13.64114684205989
H         7.52780578083333    5.04434749559954   12.22973235480655
C         7.99350874247747    3.04381885639366   12.91325186657395
H         7.46180292712889    2.20112584564131   13.35733869111951
H         8.80883969376664    3.33457678117122   13.57475190955481
C         8.53643702006071    2.65886436591177   11.54961654670887
H         9.23363451025570    3.43475207472912   11.19756755315743
H         9.09195059082595    1.71453703001928   11.60723717269468
C         7.94546899301861    1.95630247146743    9.31812520958403
H         8.14612211198281    0.88323144783275    9.44668849990432
H         8.89655665772985    2.44520794290125    9.06917747398927
C         6.93688618584178    2.16614894845748    8.20054701014756
H         7.17609467556078    1.52722897546884    7.35148672187804
H         6.94218968294258    3.20817984637074    7.87536871083752
C         5.56275098549245    1.85308997427736    8.78009932348180
H         4.77880785918953    1.94257106353403    8.02831482135600
H         5.55152130339741    0.82697862378908    9.17141933913735
C         4.65745159833723    4.30908334009980   12.10059820429630
H         3.94867904329701    3.90862320915178   11.36247021757800
H         4.33544921399644    4.01889719447694   13.10923826683457
C         5.16797469459087    6.43668444363615   10.99595837721185
C         6.48781605229738    6.43072313720266    9.02573991526878
H         5.83870527499350    6.53251961917194    8.14651731348322
H         7.33242990960845    5.79017386873468    8.74248775811010
C         6.97067442090574    7.80628016960262    9.47003968688651
H         7.69930899488974    7.69633948971666   10.27694663862198
H         7.43533909233172    8.34559506610635    8.64482919324977
C         5.75486296253896    8.56007633376919    9.98353641979974
H         6.04461075558605    9.53317563670089   10.39651923873217
H         5.04627292090156    8.73017724480485    9.16033621112419
C         4.05849470274007    8.49584897620386   11.74244553717609
H         3.65999741836455    9.27520371534043   11.08553527169230
H         4.46178250940765    8.97788516727682   12.64520268490483
C         2.96697478763246    7.50633528575943   12.10579405344281
H         2.52763559735410    7.09636371518600   11.19108984441945
H         2.18882177931327    7.98653210227302   12.69698148093859
C         3.62248408090324    6.38234330794157   12.88877138943399
H         4.06143373984650    6.77167405971980   13.81908198812241
H         2.87729913883108    5.62650304667318   13.14713402515740

