61
CSD_code = FAJFON | q = 0 | S = 0 | Stoichiometry = C25H33NOW | MND = 10
C         0.55997308103876    5.78509312658335    6.94661876164566
C         0.02421041961625    4.55758844105071    7.37783654023543
C         0.78814126664899    3.77508041597955    8.27768328463502
C         2.24738807920592    3.56552461575427    8.17114680572285
C         2.91971306966270    3.59953310763175    6.94691436428274
H         2.37115271280240    3.80982875722964    6.03927655998377
C         4.27319650473971    3.32421869248133    6.87343324480855
H         4.77409687457557    3.35873439722714    5.91638979693088
C         4.98369705212507    2.98735031289124    8.01308312311265
H         6.04026987888352    2.77256403531633    7.95250186270364
C         4.32160010619318    2.90746152222231    9.22863955891015
H         4.86300834365372    2.61998353008373   10.11912249245226
C         2.97038144418019    3.18564378340767    9.30562936417542
H         2.45180612571930    3.11121770107685   10.25128484620958
C        -1.38193455213781    4.09384710314713    7.01699710117671
C        -2.22834284573400    5.18226663459501    6.41998461125872
C        -2.49272198022263    5.27975693398507    5.12710702367711
C        -1.98305146250673    4.32526883191059    4.09182832573121
H        -1.63218677059733    4.88160617931505    3.21836462473952
H        -2.81678410556977    3.69870133471795    3.75652960855828
C        -0.86561715042251    3.44654489589801    4.64565533087701
H         0.05091379861076    4.03362608341369    4.73143583061023
H        -0.67032038807248    2.61469651082493    3.96580478811924
C        -1.25518249192387    2.92404688514538    6.02381357187145
H        -0.51280122063317    2.20909683317563    6.38368596353691
H        -2.21708915107203    2.41263055607298    5.95505128838434
C         2.71838976854009    6.95963644250041    9.08289131594898
C         2.46094951282406    6.66966253940717   10.43645166154341
C         1.27130523246095    7.39193718054417   10.83161865839005
C         0.86314299745701    8.19256054281003    9.71927668168708
C         1.71768315232852    7.89294904026594    8.62977597588296
C         3.97725748829647    6.62566980111460    8.33497738869113
H         4.69547151790668    7.44194242355256    8.44552300534750
H         3.79919688695123    6.48670810417824    7.26863946923086
H         4.43685106244194    5.71664083542811    8.71717113758002
C         3.36446629413748    5.94163645979595   11.38499291605510
H         4.00811088914541    5.23956020271787   10.86001219649230
H         2.79083457757698    5.39393501890802   12.13014473503308
H         3.99807685094076    6.66210795863656   11.90734651802114
C         0.79336200493700    7.58118715962576   12.24403495423615
H         1.32136854026068    8.41664088361913   12.70939143718102
H         0.97147092914894    6.68795270666458   12.83877933359105
H        -0.27404600829773    7.79495241491742   12.26151674691132
C        -0.21047567658981    9.24057690628097    9.75971348589679
H        -0.49886924037790    9.54562159091289    8.75647103279143
H         0.14872282352502   10.12086808559637   10.29629615813490
H        -1.09787173648936    8.86984018618117   10.27179950640595
C         1.78472974313429    8.68522420919296    7.35678906300158
H         0.79126167504628    8.89627647372236    6.96409311740713
H         2.35493452354575    8.16873763230490    6.58770955104720
H         2.27792096827490    9.64027950840686    7.55233065781879
N        -1.22035265398447    6.11377598987954    9.31695098406191
O        -2.35875610983264    6.44432410427999    9.44571843087151
W         0.53284651035799    5.92471814439129    9.22980232522168
H         0.40538835583460    4.85141635129348   10.45268930790098
H         0.27729478068403    2.90605350902211    8.69985679209672
H        -0.06139264183866    6.38659714388831    6.28948462216372
H        -1.87036778179630    3.73179885252480    7.93200738416489
H         1.61748072809567    5.82804565481197    6.69971925643531
H        -3.13164618319869    6.07228478411051    4.76085458523783
H        -2.63475642021143    5.90146993737832    7.11585093316063

