51
CSD_code = FAJFEC | q = 1 | S = 0 | Stoichiometry = C12H32CoN4O2(1+) | MND = 6
Co       -0.69694594263288    1.33539668693074    2.51514899400323
O        -1.20562719384184   -0.29965125496323    2.06892213679151
N         0.57950620260069    2.73527340321276    3.34963957876547
N         0.70179000222390    1.28135627127782    1.13850908738375
C         1.95403709007647    2.52929624692991    2.80824866053334
C         1.79160597465381    2.27298948800575    1.27586045955095
C         2.80917234663314    3.76043333497969    3.11503536991668
C         2.54494284043985    1.31988740561419    3.53414800549817
C         1.38092698211910    3.54246425444956    0.52262473675277
C         3.05793572152177    1.71329390526154    0.62344311980263
H         0.32643056230353    3.71074109177505    3.20253187183589
H         0.63829765519189    2.61329078196559    4.35969848393059
H         1.08139806606400    0.34536185445777    1.32172982943737
H         0.38125587655853    1.25370547972587    0.17002417367161
H         2.92385256618816    3.87082786038130    4.19126834161303
H         3.80212491447116    3.65400234892650    2.69007680596319
H         2.36616461714516    4.67363357257599    2.72565509292154
H         1.91627025634525    0.44028530085119    3.41691610118699
H         3.54551228751840    1.10082830524738    3.17903094578180
H         2.61932145334757    1.53544715108963    4.59795167861467
H         2.20599885106035    4.24621382041775    0.48323077248532
H         1.12023346912290    3.29186025371849   -0.50350423301264
H         0.52485131041899    4.03272324286914    0.97793397764707
H         3.29999503011236    0.72570233639772    1.00467299811843
H         2.91295153433210    1.63406312351882   -0.45177655637087
H         3.90718865625495    2.36754528500359    0.79471486160896
O        -0.18826581376026   -0.29965142172587    2.96137665723687
N        -1.97340034066532    2.73527252122744    1.68065959333617
N        -2.09568366974035    1.28135408576037    3.89178853163465
C        -3.34793140466522    2.52929470074815    2.22204971820782
C        -3.18549984655779    2.27298724512888    3.75443762492862
C        -4.20306711302775    3.76043157835559    1.91526328826777
C        -3.93883608046631    1.31988556775274    1.49614994854925
C        -2.77482115757928    3.54246195543207    4.50767363605460
C        -4.45183033134878    1.71329242080761    4.40685429857443
H        -1.72032579175738    3.71074069579499    1.82776580914311
H        -2.03219137609635    2.61328819649087    0.67060089877410
H        -2.47529126600780    0.34536010808308    3.70856455568444
H        -1.77515196145142    1.25370074466556    4.86027416172538
H        -4.31774723695517    3.87082625925313    0.83903032678438
H        -5.19601967749333    3.65400018876509    2.34022170496502
H        -3.76005965156279    4.67363181403258    2.30464384956143
H        -3.31016367055600    0.44028337706167    1.61338245026178
H        -4.93940599195854    1.10082657080853    1.85126572241620
H        -4.01321330835098    1.53544529381387    0.43234618257919
H        -3.59989343378513    4.24621100278783    4.54706920283808
H        -2.51412612098938    3.29185737163836    5.53380205396998
H        -1.91874641527026    4.03272179624226    4.05236364005757
H        -4.69388976500518    0.72570091679575    4.02562440469523
H        -4.30684649223616    1.63406153702114    5.48207398009848
H        -5.30108321294197    2.36754392263796    4.23558246522355

