50
CSD_code = FAJFUS | q = 0 | S = 0 | Stoichiometry = C15H26Cl2FeN6 | MND = 4
Fe       -0.83338689467441    2.72166081681691    8.65324435677737
Cl        0.52499354570086    1.48703860767883    7.79467553574166
Cl       -2.34928560757107    3.68906082170630    9.54171443919398
N        -0.71300334336305    4.19087773624950    6.71384201598007
N         1.15782806082546    5.53218530842714    6.90285875294268
N         0.44738515617139    4.78901498128907    4.78234625890620
N         2.14041715385080    5.18210578514816    9.09083509124834
N         0.89496067478462    3.55167939993827   10.15383362815669
N         3.15431517192561    3.77236304740045   10.68252533492717
C         0.27067702409471    4.80137425493329    6.14076394634397
C        -1.66589826897018    3.54297627770378    5.82699077883664
H        -2.29716184461011    4.30481163261686    5.35021787155411
H        -2.30972838014356    2.89650638222811    6.43236939788713
C        -0.91995696025778    2.74557434400001    4.76302627658782
H        -0.25638342023023    2.04052715255243    5.26641841566292
H        -1.60328627988722    2.19257655253647    4.11980172185354
C        -0.11748751933057    3.74407654779292    3.94680822097597
H         0.70146464363245    3.23871602036373    3.41698569364524
H        -0.76138278573582    4.22003070647763    3.19264595688218
C         1.37345953628471    5.64739921366915    4.08854761764407
H         0.94490727762251    5.88920009807788    3.10848609113448
H         2.33470793423352    5.13752497754514    3.91893253404003
C         1.58421358646180    6.90078191652720    4.91242125467911
H         0.63660458984708    7.43128328828659    5.02052130339257
H         2.30910855787642    7.56264932064357    4.43957861777544
C         2.08335919781601    6.45471615376406    6.27753942975138
H         3.07242342253552    5.99013249867132    6.16378063809650
H         2.18978208906209    7.32919355678376    6.92552355507234
C         0.99486959580771    5.64797589515062    8.33800908628093
H         0.12717311098732    5.05305410008734    8.63061923251129
H         0.81680839595292    6.70683824724209    8.58882514462986
C         2.03487042862538    4.13327371417279    9.98009184451406
C         3.31028274204719    6.03635663166944    9.09641493484498
H         2.99104336365967    7.05990132811639    8.87925979625342
H         4.02012724096156    5.72639468990593    8.31727721460637
C         4.01016993137382    6.00448806110646   10.44578700174835
H         4.90414621388932    6.62696912577287   10.42601812176902
H         3.33637838223525    6.37490597740502   11.22025801478072
C         4.36122305055994    4.55794350540767   10.72617167461685
H         5.09574739308691    4.19499602155450    9.99030266959282
H         4.80419368385530    4.44768911809537   11.72348487851047
C         3.29093473828251    2.45689307718686   11.28182956091494
H         3.46520439707823    2.58777964537321   12.35997939879124
H         4.17861711451126    1.96907046705616   10.85631471254950
C         2.05306428783549    1.60683812885154   11.05346962994687
H         2.01706212567525    0.78885349805539   11.77185332720729
H         2.05117330063490    1.19327597693293   10.04364283203462
C         0.85098550561470    2.53418786188807   11.19193704409762
H        -0.09095102531184    1.98460399073789   11.09219909383470
H         0.86242970487137    3.01757353831404   12.17802005036178

