50
CSD_code = FAJGED | q = 0 | S = 0 | Stoichiometry = C15H26Cl2N6Pd | MND = 4
Pd        1.59638026402453    7.88537765434613    4.07910389188950
Cl        3.18767141698526    9.46045685933736    4.22393660595982
Cl        0.34956964304638    9.16746444719657    2.71102464670308
N         2.58623754237033    6.68436463526562    5.43904786029583
N         0.67400967061692    6.26942584060950    6.69105529071362
N         2.42059112029098    4.72228392032459    6.69423614176944
N         0.14651992632444    6.32025635948485    4.00560185521360
N        -1.07346582186493    7.51507440247324    5.55982937851319
N        -2.10998103949869    6.86241057950974    3.57169071938811
C         1.91626575466182    5.90198846264592    6.22847570073563
C        -0.16658663714932    5.27191140751562    7.31536553988484
H        -0.51471699018795    4.53793716935710    6.57747343538746
H        -1.03916668545876    5.77454044207409    7.73293861006554
C         0.65237072810756    4.58498881412208    8.39875345093951
H         1.02834102601796    5.33890797075179    9.09174097607985
H         0.05604353421422    3.86296235813767    8.95495119055165
C         1.80598214925740    3.88498685204515    7.70289851065020
H         2.57844137069378    3.60107445856690    8.42865990033816
H         1.44342810914169    2.96168863337056    7.22648934866285
C         3.61802049058960    4.12957878247293    6.12370914826215
H         3.42244933669601    3.06392180929804    5.94985555406295
H         4.43646658849806    4.20469410168150    6.85317371331703
C         4.01229548432044    4.81690022226058    4.82792649482637
H         5.01168767257346    4.50812600040955    4.52544586282741
H         3.30588475722538    4.55854577990079    4.03550231404114
C         3.94204797139501    6.31792557739067    5.07928622019659
H         4.62358516711476    6.59936726903422    5.89286334252372
H         4.22107889987809    6.89211194208540    4.19045425277734
C         0.07785573687495    7.55351180006375    6.46173547795657
H         0.86068903562463    8.27098622097065    6.11323133398605
H        -0.32138308598926    7.91369036249544    7.42128422715948
C        -0.96274010507281    6.93068078698768    4.30670366550933
C         0.24351677399552    5.55801796970939    2.77588072610125
H         0.01627091212739    4.50495874385260    3.00138021343444
H         1.28782544127207    5.61496601293908    2.43429737712543
C        -0.70314314029441    6.08962170417911    1.70761453028336
H        -0.39957945482274    7.10573199333132    1.44392897406646
H        -0.68855534592613    5.46045475221689    0.81854476963356
C        -2.09728292070152    6.12613147272355    2.31535934890062
H        -2.79503542862094    6.60323284573025    1.62515920997117
H        -2.45082239036170    5.10406876945309    2.51113928149167
C        -3.11138989478797    7.91035280348541    3.65752153809573
H        -4.05409165065474    7.50647015049103    3.27808501833273
H        -2.80522188786211    8.75501612295892    3.02525624806520
C        -3.27649157310060    8.37600237393935    5.09310485385566
H        -3.71728491251862    7.57928505511860    5.69530059575597
H        -3.92711276841785    9.24886654661338    5.13047304421546
C        -1.89874620795536    8.71200843088241    5.63711257529330
H        -1.44027613380634    9.52520012879276    5.05480607495122
H        -1.96405244888717    9.02177220140128    6.68269095924171

