66
CSD_code = FAJGEE | q = 0 | S = 0 | Stoichiometry = C26H37NOW | MND = 10
C         4.53102546361820    8.99472211537360   11.46623399660173
C         3.49591793293669    8.37307762074926   12.21219317633047
C         4.04193289302220    7.19724058835213   12.83493752588476
C         5.43451669181814    7.13717111595611   12.49114281354828
C         5.73478056861577    8.25414089711546   11.66629963043001
C         4.44450133950478   10.35232428073325   10.82792910560776
H         3.42939317696614   10.57216118627362   10.49952042028536
H         5.10956958602563   10.44023954333511    9.96838442316138
H         4.73318095494451   11.12097593324272   11.54866953661091
C         2.15838427431292    8.98725838401190   12.50244321991352
H         2.26095443353113    9.71948166888174   13.30671118020082
H         1.43461128706245    8.23938190709493   12.81715233105008
H         1.75484922346729    9.50036091116582   11.63056360627841
C         3.41561186784109    6.37958217245343   13.93080462598080
H         2.33650892546454    6.51136579470096   13.95838468844677
H         3.81866298743647    6.68620105064640   14.89834055473154
H         3.62776725843374    5.31959839472555   13.79306202689934
C         6.42743628829702    6.18333342823932   13.08599610754563
H         7.31092656430341    6.09713435294896   12.45717489198611
H         5.99027845236437    5.19251946138579   13.19934081273701
H         6.74107265293677    6.53330510498568   14.07177681020728
C         7.12073556452473    8.69615055912764   11.30471788744973
H         7.11215129834896    9.46744398742433   10.53786938014953
H         7.72734335979968    7.86374305129618   10.95211184430109
H         7.60588227738243    9.11179379893813   12.19056907832621
C         5.63248894638111    7.14366218548601    8.89075254553429
H         5.90209349792899    8.19804093951474    8.83703045872949
H         6.48237189277299    6.48573753524066    8.72773464709759
C         4.41793776287736    6.78232388207216    8.24885134355935
H         4.33437872669567    5.83869807142266    7.71294695315932
C         3.32645860858440    7.63924729107706    8.38810528491279
H         3.54757845504585    8.66831689539715    8.68748023468968
C         2.04849718344234    7.49949986794651    7.70594705223010
C         1.07095956072426    8.48381377465788    7.88965447329839
H         1.27821390231610    9.31794854524198    8.54735948053963
C        -0.15091797797386    8.41033897816449    7.25157235977008
H        -0.89068495375815    9.18103358187030    7.41496439071399
C        -0.42851335744827    7.35142617464849    6.40265071522355
H        -1.38313769964082    7.29103767276317    5.90198272783793
C         0.53106495308668    6.37306843848045    6.19890463427336
H         0.32361627786733    5.54925411062094    5.53148309252446
C         1.75204712039144    6.44206301314703    6.84027212156555
H         2.48544020660381    5.67224309730486    6.65616006590924
C         1.98505332339823    6.29622470253307   10.64545979248204
H         1.71923855536619    6.17386233852555   11.70205864022349
H         1.40548086678461    7.15645440785751   10.28711979937204
C         1.45346999057892    5.05123906652039    9.93307987838481
H         1.98430359999038    4.90604273867751    8.98415925849062
C        -0.04157969729358    5.19701972101682    9.61087959051260
H        -0.20820916791749    6.09198036661317    9.00894806046445
H        -0.59837816600465    5.31290251303075   10.54467177509300
C        -0.55929982110426    3.97540276616525    8.85864034877287
H        -1.62189706527408    4.10001643923907    8.63504112012417
H        -0.02632215773463    3.89175996333420    7.90886605344760
C        -0.34258227695453    2.70607523784273    9.67563309147819
H        -0.68118125813108    1.83455368848627    9.11018606703123
H        -0.93640876153267    2.76088992213230   10.59155908891283
C         1.13105426374833    2.55610850917318   10.03912675332364
H         1.72040752304116    2.42619449723980    9.12909908995668
H         1.27291313483910    1.66699899063190   10.65762808197092
C         1.62700770295718    3.79095444876188   10.78490424081374
H         1.05513279791570    3.90529027334769   11.70997300468854
H         2.67272475026289    3.65804445440092   11.05645800889904
N         4.53727325324359    5.07846268496992   10.42993182964356
O         4.95628195737172    3.96570072953953   10.43725344041532
W         4.16792822358335    6.79786017573699   10.57514072927169

