66
CSD_code = FAJGAA | q = 0 | S = 0 | Stoichiometry = C28H35NOW | MND = 10
C         2.52939019369501    2.03745125735667   -0.53348987730592
H         1.50022238791190    1.75658929098895   -0.29005798632476
H         3.20383889574952    1.28494919791328   -0.10699495433592
C         2.81922899693716    3.35001617583385    0.08246017466690
C         4.12422179522390    3.84100608569223    0.16655025675910
H         4.94251077712291    3.23349062631404   -0.19006867877453
C         4.39755811212185    5.08769782041326    0.70109230229611
C         3.34964879855927    5.86366144363360    1.18382159984112
H         3.55565978635304    6.84069221060960    1.59876945666328
C         2.04632827919823    5.39166525238282    1.15388612185605
C         1.79660307524785    4.14073680386444    0.60918167087341
H         0.78035520153382    3.76595055528561    0.60480315915676
C         5.80688183501696    5.59734902948336    0.77178826769638
H         5.86068797014774    6.63002571400363    0.43077913362153
H         6.46803499061903    4.98837341667694    0.16045941867611
H         6.16641893394375    5.56715365590475    1.80054963314731
C         0.92748784740985    6.21249211195288    1.72613793478192
H         0.83560645790521    6.02303832139670    2.79634374274549
H        -0.02174774431880    5.96109320134081    1.25757887943283
H         1.11743918501619    7.27496868977476    1.58934516181915
C         1.42881836546740    3.75652045354251   -2.60338604473649
H         0.66831228059348    3.45221740505144   -3.32432217185176
H         1.03297127330867    4.22900956287338   -1.71431866131115
C         2.66360731299244    4.18290923920908   -3.09452316507260
H         3.27569799661717    4.87215118583804   -2.51580128904823
C         3.10936038953490    3.60392604432755   -4.31840511457645
H         2.33281000421776    3.45820132364647   -5.07369107983905
C         4.42030027661750    3.89625538869424   -4.89760590545175
C         4.63847296327311    3.66747935059391   -6.25957998071336
H         3.82041553293003    3.31697855608916   -6.87646623713124
C         5.87351588812040    3.88912528540761   -6.83670652309183
H         6.01548635391287    3.69983399270391   -7.89148259491856
C         6.92561423997566    4.35425626409215   -6.06676861354626
H         7.89345497335908    4.52490218048648   -6.51424271472619
C         6.72422411422509    4.60180219669782   -4.71814663776619
H         7.53935919554493    4.96803103533428   -4.11148319834473
C         5.49142520427305    4.37924005946012   -4.13844999617328
H         5.36349017786898    4.57013318633988   -3.08299946403491
C         1.84516449330928    0.71824201918023   -4.56881143179321
C         3.13246684240005    0.18453680241817   -4.25006577904771
C         3.06808211638727   -0.35697018970061   -2.92339126327165
C         1.73851117523686   -0.14330146719650   -2.43301070796523
C         1.00085495388161    0.54454138371363   -3.44090867104236
C         1.39147243285672    1.12480994309019   -5.93939273133603
H         2.23028952731069    1.44468994913311   -6.55391655765074
H         0.65222466679998    1.92582413715670   -5.91026991645319
H         0.92693225211166    0.26731021556002   -6.43211038768702
C         4.28142278789272    0.01751862866349   -5.19972506299963
H         5.22044617776342   -0.05201744316060   -4.65445843338933
H         4.35632677920770    0.85998357264365   -5.88537350005565
H         4.15860392780787   -0.89438676490225   -5.78757615774823
C         4.11517015864092   -1.22915059819911   -2.28775338375294
H         3.95005336957708   -1.31517028826848   -1.21551538163965
H         5.11230879985732   -0.81915667309981   -2.44585997588918
H         4.08460116962233   -2.23062394912316   -2.72147315949789
C         1.14112568139202   -0.80349588259117   -1.22638958042273
H         0.85005536914076   -1.82435595547636   -1.48367357813453
H         0.25206365337506   -0.27837724377039   -0.88413540538026
H         1.85049647005062   -0.85325212030350   -0.40293541598143
C        -0.48234263747485    0.77746782762633   -3.40419050630767
H        -1.00961805237535   -0.16127303234286   -3.58816052687077
H        -0.79348897496929    1.48779025479816   -4.16841775960429
H        -0.80307721052365    1.15556658987097   -2.43374056334061
N         4.57773196536337    2.10966909613373   -2.35273836874540
O         5.74319926651822    2.00200870444182   -2.14562160177621
W         2.87211052040037    1.91719891258866   -2.76484021716906

