33
CSD_code = FAJHUV | q = 1 | S = 0 | Stoichiometry = C12H18N2Rh(1+) | MND = 6
Rh        2.60528677518338   18.63351279955188    2.21983436113359
N         1.31491743803715   17.51895475309182    3.09970891154723
N         3.99832977585992   17.75462971055440    3.20302425515005
C         1.09852732659486   20.04941811760913    1.55091750925536
H         0.28389924792688   19.99950817468338    2.27535052110522
C         1.20081079613531   19.02295482116375    0.63112233567411
H         0.44226695571271   18.23804157709620    0.65464836406780
C         1.95852435755585   19.07900011535657   -0.67183650818933
H         2.08811176487981   18.05408635578269   -1.02909758219049
H         1.35039882562305   19.60259831782028   -1.41522558515793
C         3.34142283795598   19.74768815880770   -0.55678581943083
H         3.26694842686626   20.82341140650467   -0.70954905361368
H         3.98065822588874   19.35346238423440   -1.34740223559436
C         3.99545124521092   19.47787519934875    0.77933717402783
H         4.84802332193563   18.79799303578643    0.73706198353188
C         3.90234964322920   20.31983931664745    1.87152076092801
H         4.70341883542989   20.28577859788589    2.61257608792943
C         3.07673316385731   21.57985487442071    1.94602001230658
H         3.61674138341835   22.38931806009158    1.44626907934897
H         2.98447411355216   21.85916020798321    2.99880200082998
C         1.66773137084020   21.43415051675457    1.34106598774312
H         1.01085171840910   22.16100335199931    1.81992313725520
H         1.67684826317195   21.66120277561953    0.27599576479055
C         0.52670759085851   16.86687749994238    3.62764815367407
C        -0.45151302003815   16.06307380857042    4.27684493882533
H        -0.79762417192747   16.56492590403159    5.18087386434951
H        -0.02090104722603   15.09836150290642    4.54613791478207
H        -1.30008057284796   15.90281827326528    3.61113144830686
C         4.85024996829655   17.23567137731138    3.77762304977452
C         5.90600269493890   16.59913442668238    4.48803803872947
H         5.69943206370308   15.53280194583954    4.58202850105483
H         5.99314221832673   17.03525176389542    5.48363981137008
H         6.84735846264124   16.73534086876081    3.95495281668499

