66
CSD_code = FAJJEH | q = 0 | S = 0 | Stoichiometry = C23H36N2NiO4 | MND = 6
Ni       -1.94188484656769    5.04218034125893   11.96957555180003
O        -0.62303805890230    5.01985926169150   13.22030075303568
O        -2.90342009726609    6.64993037815699   13.05150314379985
N        -0.95912531505658    3.13230235830566   10.91480302723499
C        -0.04374419123445    3.68104590199449    9.90350504721611
H        -0.62245774991670    4.35274497904102    9.26012118660858
H         0.35832925048181    2.86242069378690    9.27697058086654
C         1.09256358322697    4.45101944451878   10.49781091823935
H         0.79887234493790    5.22533220397865   11.19118497021552
C         2.35973816453821    4.24450170818471   10.19273487369915
H         2.66481606591429    3.48127771062074    9.49260724662934
H         3.15221632274535    4.83655149497803   10.61781942792462
C        -0.18294198461700    2.30346069634943   11.83832335203443
H         0.46658140607607    2.96530998867202   12.41222295423744
H         0.45375330908879    1.60398183259657   11.26591143130850
C        -1.04877550890049    1.47846578076316   12.78848862096148
H        -0.37330052716979    0.88988353993821   13.42070134781996
C        -1.94143835678763    0.55553993258360   11.96890049162537
H        -2.54017322136120   -0.08606648980180   12.61897542865270
C        -1.95820228730069    2.31881994026643   10.21944895709082
H        -1.45105136853455    1.62098549505344    9.52594727797707
H        -2.58830943296980    2.98536134102993    9.62781176080149
C        -0.35209418052497    5.84083402036786   14.14112376442673
C        -1.12203458131792    6.91262789384967   14.57373509947323
H        -0.74796767991380    7.51866052282827   15.38386456932206
C        -2.35760988207617    7.25291527473307   13.99548896619524
C         0.96348920480721    5.60170198076073   14.86627224037924
H         1.43107504173808    4.69296990360249   14.49442417001920
H         0.79536385769616    5.51368719137510   15.93743663154916
H         1.63204719458405    6.44190511656348   14.69137376913103
C        -3.08103926674016    8.44649768939137   14.59264190145203
H        -2.48457478409047    9.34476919705280   14.44863795278711
H        -3.22885633582420    8.30060525383318   15.66027802022418
H        -4.04407880223716    8.57196573093152   14.10528539042709
O        -3.26037019604832    5.01980844329736   10.71847666018580
O        -0.98018909418394    6.64976678770653   10.88804655650361
N        -2.92377888871360    3.13204085485148   13.02357172670854
C        -3.83911336135091    3.68051886391735   14.03505274526986
H        -3.26039762462350    4.35220094645367   14.67846264997890
H        -4.24097424010375    2.86175133047466   14.66152694890274
C        -4.97560952657862    4.45043827477833   13.44105318834902
H        -4.68219207122225    5.22438119396852   12.74714746964979
C        -6.24258783179126    4.24459290113576   13.74733082587553
H        -6.54732383594070    3.48236188027443   14.44871007043944
H        -7.03523849802064    4.83686785627870   13.32287894914134
C        -3.69995682022566    2.30337494964194   12.09988814277919
H        -4.34954345066142    2.96530515424512   11.52614631874950
H        -4.33657309078751    1.60371520874363   12.67217005217701
C        -2.83407553228992    1.47866680391224   11.14950481965877
H        -3.50954768976944    0.89023651845731   10.51715325436429
H        -1.34268971655856   -0.08590434196530   11.31868127412406
C        -1.92462893238785    2.31843696582651   13.71870689814837
H        -2.43173905428143    1.62048506900720   14.41210899520287
H        -1.29447787202235    2.98489461162495   14.31039146727639
C        -3.53065357899962    5.84020517967205    9.79694712090663
C        -2.76049060921830    6.91190278146819    9.36448009911438
H        -3.13395751119539    7.51757580938662    8.55380380682596
C        -1.52544706721842    7.25257532114094    9.94360221352322
C        -4.84589012623684    5.60087205410272    9.07131009631371
H        -5.31382745728814    4.69251286535924    9.44357922398899
H        -4.67714747893288    5.51199544701115    8.00033713828002
H        -5.51444357377695    6.44129678011380    9.24511127993319
C        -0.80150012888598    8.44582693056860    9.34648740924564
H        -1.39771330250131    9.34427959540134    9.49041429300402
H        -0.65353613864972    8.29995797391289    8.27885750239615
H         0.16148701393375    8.57101067997199    9.83402997781825

