71
CSD_code = FAJLOT | q = 0 | S = 0 | Stoichiometry = C25H37I2N4OPRu | MND = 9
Ru       -0.80244165136271    3.92547778427045   10.15032524457190
I        -0.36818458348916    5.86330020710648   11.98398872646636
I         0.85560922267608    5.11127943154961    8.35215120906906
P         1.14477690158882    2.95996383758830   10.90311013534316
N         2.51141410433600    1.25507719298018   12.58822484338416
N         3.14864710960516    1.16946464234766   10.24628340627870
N         3.79946160776165    3.06298087899739   11.61673038601948
N         1.25285387667685   -0.71127614821781   18.26115196372379
O        -0.75810028910234    2.73786687642842   13.24985417507902
H        -1.11797424987311    3.40708302895620   13.84563500122409
C         1.19201036562687    1.80879358032951   12.38043923856643
H         0.52154101573357    0.96772135555219   12.15246173694620
C         1.93097973622434    1.75105620479190    9.72337926275405
H         1.21686479978938    0.94278204318364    9.51263964357464
H         2.16095537780872    2.26452423439853    8.78163655684476
C         2.68668909785833    3.92977119628280   11.29811671890114
H         2.95093225017853    4.54963099815366   10.43283926610690
H         2.49702639822126    4.59851018270078   12.14620567661049
C         2.91039643657835    0.42000811270623   11.46740890642695
H         3.83948800075871   -0.09037965442847   11.73949037881300
H         2.13568495189144   -0.33088321126809   11.28350881773249
C         4.15087060198709    2.19293213661867   10.50975797173599
H         5.09088762714776    1.68903674419485   10.75487737455803
H         4.28993551646917    2.79608121405476    9.60920859605686
C         3.54129271749622    2.26226970044631   12.79801116378824
H         3.25199910386333    2.91393942045010   13.62307451307509
H         4.46392085621992    1.73945466688470   13.06936103620974
C         0.59849166900555    2.51770811958591   13.60569088666450
H         1.09386542735464    3.48837010482006   13.75674337698265
C         0.74973686416586    1.68176245797768   14.84909313152996
C         0.10815600464919    0.45613005558148   14.96627595793083
H        -0.52866257238682    0.10844108428146   14.16534601103509
C         0.25252331904290   -0.32464446814155   16.09222341953127
H        -0.27162792023238   -1.26514480254057   16.13257546838535
C         1.06469613417346    0.08577817683811   17.16001635801826
C         1.69234535606625    1.33436471081296   17.04077391710199
H         2.30778249256588    1.71736211445106   17.83733368622636
C         1.53440206222926    2.10836256008343   15.91075067303597
H         2.02729898214183    3.06963835887961   15.86134743190684
C         0.43787270090220   -1.88721201562077   18.44520211502595
H         0.69717416777971   -2.36385978609556   19.38742460836710
H         0.61806254911961   -2.60878547276926   17.64414484035729
H        -0.63138504667842   -1.64630201110143   18.46558016287092
C         1.99496897392583   -0.21479978911419   19.39380745957969
H         2.08577371957280   -1.00200490135279   20.13870407989246
H         1.50801584092377    0.64921885772868   19.86188560919836
H         3.00310116213663    0.07438958222041   19.08958209404812
C        -2.14548134240585    0.76068718919769   11.20032606042945
H        -1.93068089240327    0.93346915166313   12.25293708724722
H        -1.39572301576189    0.09182576320957   10.77910024392443
H        -3.11828883655676    0.26919576119674   11.12589352693163
C        -2.19975432033914    2.06051691932636   10.45904324080096
C        -1.76301659328333    2.15485739890149    9.11286860639574
H        -1.33760831370438    1.28349690331012    8.62212432826708
C        -2.01101404905138    3.31872182452454    8.36586384937680
H        -1.74857861710615    3.33762709351262    7.31088693802066
C        -2.68220345958498    4.43729183322342    8.92616816239923
C        -3.03708182601934    4.36258215253612   10.28063884387923
H        -3.56607417496189    5.18645016597787   10.74939467354709
C        -2.80372269515825    3.18733746595612   11.03720163512073
H        -3.16490288911102    3.13018554932069   12.05845668293559
C        -3.04806629348435    5.61581484915465    8.05525266162619
H        -2.40920181013882    5.59221881561485    7.16378496697643
C        -2.83267115822714    6.96041437536237    8.75022648516228
H        -2.97265935573502    7.76630129069964    8.03457845478718
H        -1.82014127059562    7.03590104255788    9.14276739899190
H        -3.53547000326050    7.10897365642732    9.56746376750281
C        -4.50658175257478    5.45617143385461    7.61096936570810
H        -4.78151513815828    6.27334203145328    6.94928927955310
H        -5.17322278653660    5.47073505751838    8.47209553783667
H        -4.65066819501229    4.51724268187803    7.07789496497806

