59
CSD_code = FAJQOY | q = 0 | S = 0 | Stoichiometry = C16H32N6O4Pd | MND = 4
Pd        7.91651412544043   -0.00028055311999   -0.00014480062992
O         5.56422623188086   -1.09376773168973    1.58714522828630
O        10.61719198558374   -0.18126411968305    0.76221312578624
C         7.08196704382545   -3.07906714372401    5.69068772690853
N         7.23195733231034   -1.99928743269973    3.51559662050442
N         9.43165103474053   -0.48217377361291    1.11773644409808
N         6.94327021136391   -0.91522222205406    1.48311358542114
C         7.72191246917047   -4.72424564057884    9.15869165155494
C         9.13328269512317   -1.11739794668195    2.21351657459678
C         6.94327835832275   -4.18640095711138    7.96054837084922
C         8.00710598574470   -2.52154875909095    4.61471267131942
C         7.71894799637309   -1.36394286543637    2.43238389013818
C         7.86622249832097   -3.62497853197389    6.88172569355572
C         6.79457219293471   -5.28314474704760   10.23062971046880
H         6.47198893616785   -3.87723438382297    5.26172800574536
H         6.41100251917802   -2.28724888119947    6.03105564947153
H         8.40353553570244   -5.50901181766047    8.82306973563206
H         8.32707568977772   -3.92109481993545    9.58513597740041
H         9.89438284681190   -1.44222175381316    2.91255010311812
H         6.33700961575658   -4.98963754647610    7.53561521630884
H         6.26227176591838   -3.40155640005884    8.29758432280346
H         8.67673977499222   -3.31462015713665    4.25692892934938
H         8.62589797731610   -1.72247866451204    5.04083761548499
H         8.54288024735323   -4.41141059567127    6.53998557883527
H         8.47688157102744   -2.82651455232177    7.30913639945468
H         7.36769493242580   -5.65933051690251   11.07457904401283
H         6.19696199528138   -6.09926988855940    9.83045890177623
H         6.11927788676782   -4.51041506275962   10.59147835337350
H         6.22951862115061   -2.11546526742874    3.53692075571354
H         5.21329674735757   -0.66035311237294    0.74923633841926
O        10.26876946558703    1.09387567945628   -1.58709307436507
O         5.21579911777400    0.18140662398831   -0.76213603622316
C         8.75102442484176    3.07906183857658   -5.69068827608038
N         8.60103864567981    1.99928588542756   -3.51558425671797
N         6.40133877489451    0.48232509768090   -1.11765707871680
N         8.88972930844995    0.91523447125211   -1.48308834627837
C         8.11108767391426    4.72425284677030   -9.15869249368430
C         6.69971155923986    1.11743511704757   -2.21349318272116
C         8.88972112434421    4.18640608830650   -7.96054994645968
C         7.82589326195724    2.52153480474674   -4.61471114491263
C         8.11404701819482    1.36396726272566   -2.43235687293058
C         7.96677769245171    3.62497626383199   -6.88173084233153
C         9.03842965380185    5.28314826383836  -10.23063071662976
H         9.36099289076042    3.87723213710345   -5.26172147620992
H         9.42199686442772    2.28724972543912   -6.03105350883047
H         7.42946538097595    5.50902024522879   -8.82307138302283
H         7.50592413258807    3.92110119984435   -9.58513497503690
H         5.93861853459814    1.44218469046853   -2.91256911082571
H         9.49598968868518    4.98964073725173   -7.53561295207202
H         9.57072906212290    3.40156488682394   -8.29759010368795
H         7.15625160365930    3.31460464517027   -4.25693879218153
H         7.20710386199912    1.72246269618487   -5.04083623775639
H         7.29011648030221    4.41140564311939   -6.53999201922544
H         7.35612279794387    2.82651291950360   -7.30914768441995
H         8.46530888163032    5.65934003645724  -11.07457851335612
H         9.63604638550429    6.09926783055036   -9.83045850017974
H         9.71371743612800    4.51041389573444  -10.59148111722876
H         9.60347830709583    2.11545228896371   -3.53691333921482
H        10.61975314632798    0.66022202364271   -0.74934543845753

