55
CSD_code = FAJROX | q = 0 | S = 0 | Stoichiometry = C20H28Cl2O2PdS2 | MND = 4
Pd        0.00010190461428   -0.00011220354991   -0.00011129542511
Cl       -2.02726073579874    0.19120029925890   -1.10580599686665
S        -0.50244960151600   -2.18697596716631    0.51970826561636
O         0.71534477661672   -5.65729467876305   -1.36336440572535
C         1.29150075886425   -3.40098269931726   -1.10727931878061
C         0.98092020664180   -3.21169257307831    0.37910857933278
C        -1.20413265706211   -3.00855496478263   -0.94150227268768
C        -0.06887177377159   -3.46943990965593   -1.86888606954351
C        -0.19392197682439   -4.97930631729623   -2.19966461805534
C         1.84841198683622   -4.82675416229450   -1.30564612965578
C         2.24750001265189   -2.31594278709657   -1.63204603835374
C         1.53319227455267   -1.08394727577174   -2.11786776371469
C         0.43702181726824   -1.22645999103510   -2.86101052369240
C        -0.05617389361259   -2.61472956484280   -3.14591929936224
H         1.78879221319374   -2.73704864689409    0.93279924267898
H         0.72424994618719   -4.16837246413787    0.83979124197662
H        -1.77350570735435   -3.85437814703222   -0.55300324910950
H        -1.88619194229978   -2.30832010865138   -1.42247205412371
H        -1.18766177405668   -5.38872642975740   -2.01853986735024
H         0.07084569416426   -5.15336813716902   -3.25319440655498
H         2.41213391374931   -4.88867175030408   -2.24888686132920
H         2.48272992513686   -5.16420611295011   -0.48660770443856
H         2.96631286007044   -2.05585528656571   -0.85441415112587
H         2.81006504912310   -2.72473389629257   -2.47940891339509
H         2.01770389019960   -0.12049236552711   -1.96513051603050
H        -0.08071115654200   -0.38755915687657   -3.30543262330570
H        -1.05340772967869   -2.60146238916497   -3.58619541291431
H         0.62588317756520   -3.07327508967472   -3.87126454391082
Cl        2.02766510101995   -0.19066963021385    1.10612895670897
S         0.50340598766666    2.18682782977605   -0.51982341452695
C        -0.98006122481966    3.21137416637454   -0.37916790347979
C         1.20402898219714    3.00835113526116    0.94187041675620
C        -1.29127784001534    3.40087910215353    1.10709620097116
H        -1.78778142919367    2.73663906886337   -0.93299618167974
H        -0.72349368486024    4.16807087833841   -0.83988797210837
C         0.06878020594540    3.46962959592806    1.86915594020489
H         1.77386756990607    3.85400016349999    0.55379838440985
H         1.88574287635617    2.30804271666558    1.42320912117859
C        -1.84840252036875    4.82659006406519    1.30530890539972
C        -2.24757787951610    2.31595989296462    1.63169124026995
C         0.19369021166908    4.97947943464203    2.19992510995924
C         0.05559240961406    2.61499507117977    3.14624877181777
O        -0.71545010800306    5.65722824948766    1.36324656078543
H        -2.41251522640562    4.88869827495261    2.24833236382946
H        -2.48246047479556    5.16390238587138    0.48600835222065
C        -1.53324664272066    1.08409677990986    2.11765223566905
H        -2.96611624702223    2.05570804640298    0.85383678650257
H        -2.81042241959813    2.72478104864093    2.47888054521206
H         1.18740723698246    5.38896328999222    2.01888971389632
H        -0.07138931768775    5.15373375917414    3.25334216981227
C        -0.43720623837524    1.22664206322505    2.86100450472119
H         1.05269704760002    2.60182990221824    3.58684378904454
H        -0.62679133789353    3.07342817682184    3.87137990775819
H        -2.01762790805094    0.12055421673599    1.96486405714159
H         0.08052141143565    0.38772709345417    3.30540814337692

