106
CSD_code = FAJROY | q = 0 | S = 0 | Stoichiometry = C48H53NOP2Ru | MND = 8
Ru        7.80496454459130    5.12655563198264   12.96712899908938
P         6.58115756706595    5.92666146768174   14.67974760242363
P         7.27221703201818    3.01051106813680   13.55064757454906
O         6.01640100757420    5.86688746860142   10.84189612328046
N         4.99893088868361    4.41282113195188   12.18528252949670
C         6.06289565076819    5.08118533887871   11.95411302846558
C         3.98346548650924    4.76707967303988   11.20566265999400
H         3.23186853336436    5.40346059858743   11.70532007091233
C         4.76844709501496    5.63316249653648   10.16366542711101
C         4.10629223754838    6.97571791720136    9.87429031980263
H         4.00825592467002    7.55259069020834   10.79091076552051
H         3.12233007911889    6.82172866322128    9.43822606588829
H         4.71427716976237    7.54578767465356    9.17428129323138
C         5.05604200285638    4.88012630254268    8.86406167283488
H         5.48751694523703    3.90664561298882    9.08585668220201
H         5.75912303340064    5.45012282389925    8.25942654346856
H         4.13932590102396    4.73521717859369    8.29856785442265
C         3.24897960518789    3.59124706580506   10.62246658135606
C         2.09855890410724    3.79766790476857    9.86851583483871
H         1.72860216417552    4.80290088908517    9.71848516200318
C         1.42224980119729    2.72867671819897    9.31121695087594
H         0.53220706626084    2.90282192436041    8.72311455495471
C         1.88043679035947    1.43613783300806    9.50807623044246
H         1.35128866294852    0.60169352635207    9.07085037673700
C         3.01194920468435    1.22192208723561   10.27458596516580
H         3.37362837841247    0.21764398743765   10.44356339950288
C         3.68946256157843    2.29314249910862   10.82899829847817
H         4.56617325857198    2.13505194035765   11.43473766919222
C         8.78908601149991    6.85954420867751   11.99835757189567
C         9.49636088518302    6.61830831055705   13.22974550267367
C        10.08013835420415    5.32659593703139   13.16474010928243
C         9.77264513250731    4.77162389750009   11.87151493613229
C         9.02126393413002    5.73801613252321   11.14265441425670
C         8.24025694032125    8.18072528618411   11.54339628638632
H         7.85085694391010    8.75959481556807   12.38020253923217
H         7.42811131900943    8.02847601631395   10.83540506535993
H         9.02334774350913    8.76503382295846   11.05257153046269
C         9.83253739668677    7.66482162816272   14.25137559270151
H         9.18657854110052    8.53270444702917   14.14399248436498
H        10.86457577240694    7.99027330224483   14.09686067799424
H         9.74749164432445    7.29098387603814   15.27166006239068
C        11.13867118072150    4.78816987313328   14.08648184492948
H        10.97302132931240    3.73829869797637   14.33071598716990
H        11.17585626384640    5.35680585543205   15.01312381430150
H        12.11551980562951    4.86869035112821   13.60215830022550
C        10.50183283673375    3.61259722863008   11.25352952215816
H        10.95624615609297    2.98857244277774   12.01916851171061
H        11.29766286795167    3.99661590838037   10.60945877792843
H         9.84810851275796    2.99112662637525   10.64227906969695
C         8.80455756388204    5.71652109621495    9.65935708038268
H         7.87249502700489    6.20651695860911    9.39121652814286
H         8.78988765265663    4.69932012446795    9.27146479652562
H         9.62502567430135    6.25247747716596    9.17400900362399
C         5.06187724620172    4.99583375088695   15.16214457731120
H         4.53394435853826    5.57286331162622   15.92890187732446
H         4.43918374127657    4.89210533491047   14.27177822047381
C         5.41623006331925    3.60808799212710   15.68823748699106
H         6.23219204125348    3.69547842509334   16.41109030934776
H         4.55045193157883    3.20362415796218   16.22424219050157
C         5.77158955745907    2.62434701400513   14.57476158239855
H         4.94852879190986    2.60110814957329   13.85580151544533
H         5.90873292826651    1.62593516086593   15.00333408152895
C         7.33841471709596    6.04115130667509   16.34398505907894
C         6.73492639886108    6.71134133103019   17.40368721185655
H         5.80412137527727    7.23970548697704   17.24783598824292
C         7.32957519267393    6.70804021884078   18.65208961487967
H         6.86082365801308    7.23308651705602   19.47210944491573
C         8.52255534511750    6.03156626721940   18.85778833473849
H         8.98099774205127    6.03287769939319   19.83601329847437
C         9.12171946034003    5.35253022289585   17.81030018203487
H        10.04727534938466    4.81663825119010   17.96703006780918
C         8.52885296146565    5.36030013814689   16.56016564050191
H         8.97136851005227    4.82663831553949   15.72790930485609
C         5.90936914259367    7.60930283613429   14.46409708895712
C         6.53193477716061    8.73296883932021   15.00070584681172
H         7.38591599624171    8.61343296681839   15.65264467210948
C         6.05437411247239   10.00065188377724   14.71814882501304
H         6.54458774122171   10.86578063095393   15.14239581400141
C         4.95354653863607   10.16308382742707   13.89440722865922
H         4.58252997406062   11.15345889561478   13.67452073894597
C         4.33119695196309    9.05012829680113   13.35122234066858
H         3.46974373343241    9.17756317191736   12.71027636115742
C         4.81012166527723    7.78364376589695   13.62733796700731
H         4.34006059753506    6.91255491420792   13.19655376909632
C         6.99308905235768    1.83729024333834   12.17324802762921
C         7.16104630546329    2.29075866381790   10.87149382034076
H         7.41001038745106    3.33414663026811   10.72213556658812
C         6.98535508826363    1.43663319531835    9.79722128403975
H         7.11589192729963    1.79807443126792    8.78644944053134
C         6.63842407075774    0.11455453111972   10.01797874396894
H         6.49512192756424   -0.55430590018321    9.18190391207760
C         6.47839932999183   -0.34955295173079   11.31399873155030
H         6.21367731978597   -1.38301409681410   11.48734383505095
C         6.66027976909466    0.50255277689169   12.38793398526795
H         6.55142318058674    0.12775887909403   13.39583831301239
C         8.56396338754092    2.04722439451135   14.43128524904026
C         9.51069479426264    1.33590645781383   13.69775106881687
H         9.41670268391092    1.28195187258979   12.62261499978518
C        10.55353105606761    0.68439991524454   14.33066952067648
H        11.27749786656306    0.13452546931718   13.74579204477338
C        10.67189788935355    0.73560732181428   15.70975910944343
H        11.48852309846423    0.23030495431854   16.20437162342923
C         9.73431112335454    1.43656759122459   16.44987788553219
H         9.81565123353929    1.47622238052344   17.52695346007172
C         8.69210316529212    2.08867925222787   15.81650608420802
H         7.97067975592169    2.63170247164292   16.40732040684705

