47
CSD_code = FAJSAM | q = 0 | S = 0 | Stoichiometry = C18H22Cl2N4Pd | MND = 4
Pd        3.59944438983110    2.00701322038267    7.50621602438651
Cl        5.38083797550598    3.08525816646105    6.54737540322411
Cl        9.20440648886226    4.51246782435604   10.90851692798634
N         4.65545072188544    1.30726099253941    8.98315076610917
N         4.47485184871621    0.19347840640225    9.56045574969747
N         2.08052615103184    0.73835609523977    7.96012632756566
N         2.29098967409899    2.65826711089340    5.96135644081651
C         7.87364022723620    3.56342764521145   10.35394526015165
C         8.01246739685747    2.18775105958443   10.24904938754595
H         8.94853057913601    1.71840582745853   10.50779614072590
C         6.94826503280002    1.42869585773007    9.80460938182692
H         7.03586335294573    0.35776709618585    9.70491735938328
C         5.75066353827295    2.04597300452577    9.44662394204783
C         5.61885273579945    3.43003647761287    9.57816811003971
H         4.66681959089527    3.89662328382901    9.33083580288237
C         6.67792195162240    4.18935837588501   10.02888421627770
H         6.58441643393408    5.25927592325763   10.12590192771349
C         3.44953008658612   -0.64100515224660    9.39061019035183
C         3.57588663723714   -1.85051207511430   10.11582026663256
H         4.47910282544386   -1.97374446295501   10.69316965273065
C         2.61846704106359   -2.81905535329694   10.07969650284123
H         2.73676382053470   -3.73846857917337   10.63102711589422
C         1.46379586519660   -2.60586840685846    9.30867400677889
H         0.70201970740914   -3.37156445478845    9.27147627693792
C         1.28555410095717   -1.44949861994519    8.60872364801385
H         0.38362699460488   -1.32576667440970    8.02949273196494
C         2.25324216842648   -0.40166885076660    8.60456211799102
C         0.91187804720476    0.94462929405706    7.13124004744540
H        -0.00811285294085    0.87200269311789    7.73050109283641
H         0.85595625466254    0.17577238306750    6.34488807073507
C         0.96405761065067    2.34105744236538    6.50693939502829
H         0.18283914840969    2.43911298715087    5.73964310380737
H         0.75618074889635    3.06485583535988    7.30032531822170
C         2.68384244095645    1.81339748976944    4.81977754481219
H         2.72252026516386    0.76775920519346    5.15962879960899
H         3.70327433804657    2.11157648127274    4.54696149130332
C         1.79153270733957    1.90304214345732    3.58087265503829
H         2.21064430153288    1.26980938733457    2.80327455069443
H         1.74778556471766    2.91933252968303    3.19844870505917
H         0.78003575481629    1.55776879681586    3.78305405160018
C         2.38749172433650    4.08950771843102    5.64121526456612
H         1.55963941864472    4.39647949251631    4.98761119658165
H         3.33440363695232    4.23618016669167    5.11681932616340
C         2.40338582616266    4.95283645431272    6.90193008126798
H         2.86440693825822    5.91125812149697    6.68117334401934
H         3.01242536853754    4.44961655591872    7.67108423632799
H         1.40517542076213    5.13764108400410    7.29413004636681

