53
CSD_code = FAJSUG | q = 0 | S = 0 | Stoichiometry = C16H22CdN4O10 | MND = 6
Cd        2.19149224265938    2.81057280456000    3.55464071826154
O         2.38338854914934    0.67210109871424    3.47562605368280
O         3.91756887435117   -0.91644148971272    3.25208885206016
O         6.49002409148288   -1.11274996157216    3.11803030582706
H         5.46991808011105   -1.14122112767669    3.17450872278259
O         8.17034090820077    0.34638071277555    3.16636420648580
O         1.72922130936210    4.89527679102967    3.59764812971304
O         1.83471830739699    6.70508917090309    2.31346367164332
O         2.19026272149671    7.28554823720209   -0.17471886024785
H         2.03116578349714    7.15882158475570    0.82867977313610
O         2.52726931643425    6.09033532743806   -2.02241841257072
O        -0.03542806043597    1.92023300288004    3.97375757160747
H        -0.64176662587533    1.90447015873477    3.22521333252765
H         0.39199837054444    1.04949883030894    3.99200515028039
O         1.88128865530985    3.17657576289317    5.80394059563229
H         0.99231451634170    2.83981973638148    5.97742222980123
H         1.77402669579186    4.12999671565643    5.67071456931287
N         4.31631590691364    2.62974973157069    3.60438656423932
N         6.48792415217685    2.49874184469180    3.46810330220525
H         7.47351642572358    2.72103382112789    3.43394880191480
N         2.06249573931360    3.23644829907292    1.42945597231338
N         2.39061585466930    3.69821476764514   -0.67753546596988
H         2.55927492349565    3.62649446291692   -1.67161018372197
C         5.43530477479115    3.32784781373165    3.59334237594756
C         4.64961616186083    1.31007352280700    3.48165946121745
C         6.02166501228386    1.21051343782264    3.39417545508595
C         5.49642362108023    4.80960847130663    3.59114678091505
H         6.37205324503409    5.16024171861997    4.13946836997074
H         4.59407193573836    5.19197119780997    4.07515421069889
C         5.54247621639043    5.33183277213481    2.14319107895505
H         6.50020272825853    5.06570353248194    1.68974749664823
H         4.75156108539494    4.84055974878030    1.56965426789174
C         5.34247967763541    6.84014887080962    2.09040477013622
H         5.39251620843206    7.19041530519594    1.06276543228391
H         6.11181665099954    7.34943760815591    2.66566774813515
H         4.36995637726576    7.11084212030955    2.49367501083897
C         3.57197279780747    0.26050760988718    3.40698272539085
C         6.98907624229590    0.09055223577557    3.21948620598599
C         2.29325953734078    2.71656490369998    0.23858244025387
C         2.22318927810030    4.90353467438966   -0.04457206543625
C         2.01917616550292    4.59591993123887    1.28317277184314
C         2.52361370948780    1.27595315231534   -0.02858662552916
H         2.11613180211720    0.69956416269238    0.80515741069895
H         2.02547835520718    0.97175747985689   -0.95105456101984
C         4.03276071701329    0.99248833328342   -0.13695081204490
H         4.53381731201387    1.42856563862542    0.73145561579188
H         4.43223671364218    1.47493892454241   -1.03214517663794
C         4.31150944093193   -0.50348479140967   -0.18361899284262
H         5.37954521679401   -0.68427674700544   -0.27097914716679
H         3.81395912534872   -0.95994593240914   -1.03597893043282
H         3.95906424414095   -0.98579390649138    0.72455661985697
C         2.32140876428166    6.16485231465215   -0.83236373809971
C         1.83791014469533    5.48101561396236    2.48948819982222

