70
CSD_code = FAJVOC | q = 0 | S = 0 | Stoichiometry = C32H31MnO4P2 | MND = 6
Mn        3.63700848584883    5.35653890424586   14.31046496247807
P         3.40785755988368    4.70796040666314   12.16186112301865
P         1.62128622899757    4.35765612939744   14.70031429097430
O         5.94254765501383    7.06968222789568   13.76596037577776
O         2.42069763361706    6.43783523310421   12.98108059516474
C         4.70369430803226    4.13702552047702   15.04892947212032
O         5.46031101564487    3.41339431010874   15.53542179961473
C         4.99711872356662    1.43245584134167   10.15505976978314
H         5.35068246697435    1.19441205104942    9.16178451435709
C         4.11043509216922    3.03759337950525   11.71575654048435
C         1.80271870311075    4.38326646874517   11.30924493996737
H         1.26684625625086    5.32115726906948   11.15565085423616
H         2.06744411667243    3.94941902999472   10.33802869612699
C         5.73393091839666    5.63322105758870   11.06611873676167
H         6.17666205561074    4.98316962447973   11.81293032860256
C         6.52985339383326    6.37414476133111   10.21560937611549
H         7.60538966094217    6.31702587417169   10.29573436544892
C         3.76559484209260    6.51738622851253   10.00890932707795
H         2.69114875947422    6.57562783848769    9.91903822364143
C         4.98353965135281    0.45512428254868   11.13749203993053
H         5.32838875283177   -0.54331886201336   10.91145475442441
C         4.34550365990448    5.70331475328345   10.97186255366666
C         0.93134326337544    3.41656313789685   12.09679713813900
H         1.51740905847239    2.52539118760458   12.34326921000055
H         0.08750161199412    3.10123735730048   11.47323478666654
C         0.38867757715696    4.07414882998793   13.36141099922538
H        -0.41949487556568    3.48199876860514   13.80924196897857
H        -0.01601584128429    5.06330617077369   13.11809802108063
C         4.56702913291193    7.26112364669061    9.15839936521996
H         4.11068754825802    7.89703072905443    8.41302433919236
C         5.94536211646723    7.19412596865284    9.26189200182671
H         6.56564543130966    7.77954665903058    8.59916666017575
C         4.09876428201693    2.04727331425406   12.68983999714184
H         3.74847527325510    2.29239158790804   13.68807041453595
C         4.52857171149898    0.76307957837467   12.40790824535091
H         4.51165626988718    0.00760622607935   13.18040974730197
C         4.55808109906682    2.71221596152116   10.43909963633643
H         4.57001946938093    3.46833173963712    9.66443591531101
O         3.47272063475470    6.89133466481336   16.79995552255597
C         0.49332251033525    5.23866673880408   15.83363396797125
C         0.41170688475501    6.62353341840970   15.73137232193640
H         1.03942532914951    7.13819825589308   15.01781219982803
C        -0.31663139158227    4.57137233842537   16.74656114125848
H        -0.26396304696776    3.49514459992022   16.83421837230294
C         1.76112689754070    2.74844154448928   15.54643298594813
C        -1.25374166679152    6.66745620559350   17.45224532073964
H        -1.92853956423811    7.22145990008693   18.08794760246512
C         5.04914084607997    6.36406626543147   13.93002817057482
C        -1.18219836198846    5.28795189091202   17.55370883542569
H        -1.80311970818560    4.76553646741771   18.26705055695139
C         1.25078739615952    1.54163752244525   15.08558203575216
H         0.68896463636291    1.49223294415322   14.16469710244191
C         3.49595421107378    6.29012556254769   15.81638896565680
C         2.17808010057348    0.41292840321651   16.99431850403527
H         2.34267754980841   -0.49724865684554   17.55158527811111
C         2.42943352002507    7.81173341375430   12.75292861119558
H         3.28333287540643    8.09872937560733   12.11399437968979
H         2.54030497986927    8.36173463174064   13.70314736157820
C        -0.45773383553911    7.33535462520302   16.53613987363810
H        -0.51133168626202    8.41115949031179   16.45368962143954
C         2.48328133457037    2.77415563845601   16.73986297518616
H         2.88028806984722    3.72148839920663   17.09111440295198
C         1.12568784375662    8.25652384622700   12.08175598998617
H         1.01831078598419    7.79327944208390   11.10302452298309
H         1.12734273352853    9.33626826711176   11.95543497428056
H         0.27012856542756    7.97393636857149   12.69377639657299
C         2.68519044695878    1.61582378019088   17.46289080679405
H         3.24319525772087    1.64655692953414   18.38665551793363
C         1.46339551041742    0.37984837920076   15.80997776320766
H         1.06778727302871   -0.55619384628466   15.44276183234322

