91
CSD_code = FAJVET | q = 0 | S = 0 | Stoichiometry = C38H44N6NiSe2 | MND = 4
Se        0.63601406721883   12.12724929457502    6.76542148001932
Se        4.05805693903659   11.88703110010090    6.84104153550592
Ni        2.41300546069277   12.52850820946788    5.42293285279697
C         5.48805349825109   11.78719869627029    5.57716829720418
N         1.30307165408383   12.25460466481141    3.84410959685562
N         6.40072389811748   10.81382369313721    5.71420339998499
N         5.72458287560095   12.67494181022036    4.64966743301552
N         3.64924786312786   13.71227469901008    4.50397767307857
C         5.65777320082077   14.79746998233393    3.63964971422260
N        -1.63702972294006   13.74483798162603    6.40793598494676
C         7.59922823334778   10.85191722816980    4.89763273840434
H         8.40370345252595   10.36496695937420    5.45345716389081
H         7.85823540564359   11.90073325273626    4.73289235500809
C         6.30649421700405    9.76406875450749    6.70057137966936
H         6.79327510733101    8.87409752020810    6.29224348182110
H         5.24924642129892    9.53752564792414    6.87098070486982
C         4.93472203129307   13.68623136985637    4.30243514401010
C         2.19800514261529   11.69907838153359    2.92907273549963
C         3.33420421417360   11.63220446265666    0.81774845837486
H         3.47012070275323   12.02345155321276   -0.18098612849961
C         2.36880563306118   12.18556885244433    1.63386450496840
H         1.75313329568023   13.00260831618719    1.28656772103483
C         2.77112372831626   15.24186422638903    2.79543431788738
H         3.43305904884684   14.82634787422861    2.04956846531025
C         5.48007834707145   16.11778554954497    4.03686395182578
H         4.80540996594118   16.35233047651854    4.84731681714400
C        -0.59245348921547   12.01995957653330    2.32493115686162
C         1.86639064283109   16.23006592447039    2.46456726153882
H         1.82662014990883   16.59063285802086    1.44603879887091
C         4.13417332700943   10.57965914441445    1.25080177082494
C         7.24768162600742   15.51596174971378    1.98780409466631
H         7.93783341084876   15.28112718235568    1.19033208055937
C        -1.42770644877213   12.91759167430808    1.66933971503037
H        -1.58901011586332   13.89344606726842    2.10216080199727
C         2.81991152917362   14.75984395881768    4.10259870162628
C         1.95597582017348   15.29908031535531    5.06239797151321
H         2.01866030391885   14.93826206796448    6.09237391963267
C         6.55538919821294   14.50021310369450    2.62030350372522
H         6.69369684987780   13.46972606848672    2.32940175417645
C        -2.02944417006549   12.56108673740238    0.47690691933806
H        -2.67073618469060   13.26501115031258   -0.03356810015305
C         3.00003671564042   10.64237427003463    3.37341430620697
H         2.84178747640062   10.24601274351655    4.37943491595812
C         6.18193230413823   17.12893805796496    3.40663414297700
H         6.04329331308507   18.15287314011833    3.72129328175315
C        -1.66936305302210   13.88597280456584    7.84421161513029
H        -2.15283053425024   14.83847490241548    8.07785404727331
H        -0.64055568587724   13.91500902136534    8.21690756831758
C         1.07063031030122   16.29947219847232    4.71788477927514
H         0.42502038998352   16.72097393779238    5.47508862415390
C         1.00761200654105   16.77496365539826    3.41351430346754
C         7.05996203323885   16.83184277386935    2.37764506826971
H         7.60233517236947   17.62495100344632    1.88405386775867
C         6.94880403790920   10.15813505393238    8.02757895813266
H         7.99731544137948   10.41288016623479    7.89114483356875
H         6.87558716081581    9.33565628182252    8.73312371457501
H         6.42829330993058   11.02019780688737    8.43951133366697
C         7.39894039330798   10.16775887198716    3.54930639097006
H         6.61351993121184   10.67682897273872    2.99862691674930
H         7.11675833395606    9.12572908517015    3.68485942652179
H         8.31920255790864   10.20607182148487    2.97224219508171
C        -2.75413432681743   14.29181221204018    5.66136030896537
H        -3.62134506411574   14.32646836868165    6.32465342766653
H        -2.96364421270279   13.61512558303087    4.82915526923066
C        -0.99918701814736   10.39921369454377    0.60068747363969
H        -0.83959813948935    9.41289526593486    0.19037126945941
C         3.94675696513278   10.08793008347436    2.53687742699041
H         4.54343251517226    9.25790431550642    2.88727832806928
C        -0.38788419767409   10.75344790823915    1.78936304755529
H         0.23603491709125   10.04104558027323    2.30907865003493
C        -1.81342735310217   11.30308820992746   -0.06116816671000
H        -2.28437229880258   11.02493968073628   -0.99265063451422
C         0.03234213009159   17.84536930682859    3.02410820155244
H        -0.40783557325312   18.31003967861098    3.90299090525621
H        -0.77263602460123   17.42385389818252    2.42045020934505
H         0.52443253893131   18.61321595739771    2.42929475885480
C         5.17538734376100   10.00024643143490    0.34036888374740
H         5.63484274275178    9.11996217133689    0.78301061583531
H         5.95711064399401   10.73384901614848    0.14157354979662
H         4.73341539368719    9.72130085175325   -0.61517081879090
C        -2.40935502400618   12.73538305620950    8.52057070056859
H        -1.89250996388229   11.80085794431947    8.31232563842787
H        -3.43046960598427   12.66147891292205    8.15347510494377
H        -2.43210725213431   12.89013028369439    9.59535430322441
C        -2.45193622844523   15.68272289779826    5.11325455963053
H        -1.60330313122741   15.62910113923886    4.43777935015499
H        -2.21591220208833   16.37166529740025    5.92156914663040
H        -3.31345957155654   16.06488029482363    4.57185381090098
N        -0.81376430583954   12.99563001459870    4.45412071881258
C         0.03619538449818   12.42919626130476    3.60316108869709
C        -0.68597782641999   13.06414097754359    5.75121045309176

