65
CSD_code = FAJWAP | q = 0 | S = 0 | Stoichiometry = C30H26MnN3O3P2 | MND = 6
Mn       -1.76021370612122    0.70072315819686   13.67603664474540
P        -0.24505895938416    2.25511667531427   14.33291202199499
P        -0.89222087267356    0.88525028656917   11.55791110460573
O        -3.32028980122244   -1.65574507479809   12.90749136872575
O        -2.67941078235879    0.14073338630083   16.39752023011222
O        -4.16746567652656    2.32665672717047   13.34784098973312
N         0.04985015875472   -0.11241080249466   14.07540117176587
N         0.61166140797226   -0.93277063879981   14.69985136790502
N         1.27113276235128   -1.67973148376625   15.24063440256511
C        -2.66316288092672   -0.75627399305435   13.19885803908688
C        -2.29109561609486    0.38838360083109   15.34541466585709
C        -3.19101845130718    1.72003123492433   13.42871829761810
C         1.42424653625957    2.35577997221641   13.55923904498174
H         1.93143076459553    3.19146001635634   14.05747740056523
H         1.97908492937913    1.43464905457609   13.75310471439355
C         1.33792711130315    2.60675114452759   12.05902088222573
H         0.66120472335479    3.44789663113890   11.87634455085907
H         2.32833999286908    2.88771172847699   11.68567673287960
C         0.86932365917003    1.36427786159687   11.30627607212295
H         1.45718182769745    0.49439283410424   11.62444392241718
H         1.00569257068661    1.47902777803955   10.22357234745206
C         0.11417396087861    2.13755152057351   16.10563991777819
C        -0.88994602128074    2.58796349917501   16.96258241003622
H        -1.79139732198324    3.01666260458152   16.53723142404538
C        -0.73551023842436    2.48595320552938   18.33017876956475
H        -1.51659550216055    2.83518182689385   18.98916786731546
C         0.41940465666595    1.92385228290258   18.85343987838887
H         0.53842286142711    1.83450919514380   19.92297177570349
C         1.41555492427019    1.47004605564687   18.00669631694345
H         2.31087776664660    1.02396100556012   18.41366445720132
C         1.26875426536692    1.57417421205153   16.63354441005542
H         2.05027192971745    1.20476517201700   15.98605925323437
C        -0.63791887278831    4.04564368562375   14.18713768878323
C        -0.05047248686458    5.00395664128028   15.00815035318484
H         0.61070036180366    4.69594038305825   15.80750291839127
C        -0.32072157763852    6.34490463191281   14.81048752767672
H         0.13168137437192    7.08379691984351   15.45597051166177
C        -1.16752581180499    6.74413404419997   13.78784113161398
H        -1.37555945792274    7.79333276821298   13.63870876772284
C        -1.74677389606095    5.79751443131480   12.96045424710622
H        -2.40632236105502    6.10075264344821   12.16033413405844
C        -1.48318939163113    4.45463560276987   13.16294244694425
H        -1.94001134960111    3.71040352405295   12.51995208118187
C        -1.84551930566246    1.97336177281698   10.45200983104181
C        -3.19399440531945    1.63909336639774   10.32293022791007
H        -3.56911480431759    0.76288037801354   10.84225489120208
C        -4.03431456183576    2.40691643432552    9.54213161226531
H        -5.07603611878257    2.14000336488276    9.44661790751412
C        -3.53812787735073    3.52570944024598    8.88950944489948
H        -4.19467153364039    4.13507512879280    8.28659062255705
C        -2.20112159285781    3.86134072935926    9.01204694393910
H        -1.81263243194680    4.73107693830095    8.50211185683805
C        -1.35188107594877    3.08963157557305    9.78828427947703
H        -0.31150912926215    3.36792132470600    9.86852387165864
C        -0.84409478651627   -0.64830002087313   10.57018999833035
C        -0.54077637701158   -1.84663627672598   11.20908371917464
H        -0.37740384466565   -1.85866434685628   12.27889944167221
C        -0.45355945216943   -3.02105934762407   10.48497903050457
H        -0.22256364479716   -3.94689561566478   10.99022536967377
C        -0.66767527338047   -3.00786154141138    9.11665274718306
H        -0.60736207652520   -3.92556481085240    8.55082664774234
C        -0.96099547085431   -1.81632802317288    8.47406882977624
H        -1.12662579893002   -1.80352059685768    7.40664908009742
C        -1.04562947511091   -0.63800758757048    9.19328082128105
H        -1.27892847282863    0.28758176095625    8.68552856405040

