68
CSD_code = FAJZEW | q = 0 | S = 0 | Stoichiometry = C21H35BN6S3SeZn | MND = 4
Zn        6.63946237983853    3.43225663740801    4.77106119451432
Se        8.64217392403717    4.76005811492638    5.11550446707643
H         9.02705453781198    4.81235354093264    3.74739336904800
S         6.62349693436029    2.10480617212028    2.62048495309727
S         6.09648135247889    1.67195758317823    6.47183521208840
S         4.43144723279281    4.63429621287256    4.60939609793344
B         3.68000875529979    1.37220652053169    4.12158834817631
H         2.72142897989877    0.69438860739182    3.90795690306986
N         4.92764448554866    0.47780410546044    3.96410416956558
N         6.90906127970939   -0.41345205369332    3.61513314476165
N         3.55682188983150    1.91282852856028    5.56191159710137
N         3.83840382518579    2.69069595383471    7.60100604111777
N         3.67733583773887    2.52110660914654    3.09195045147488
N         3.88736717872903    4.39201092424236    1.95304424607015
C         6.14537835623795    0.69031256050420    3.43685991236409
C         4.93047836650677   -0.78250473590978    4.49494886002305
H         4.06778918906620   -1.17954312595628    4.98705576492396
C         6.14480273546609   -1.33317119514383    4.28520419075479
H         6.50248912969372   -2.29766324558251    4.56955953897328
C         8.31975998803886   -0.58121814578680    3.23806353094031
C         8.44498345236103   -0.47463619184140    1.71622212442326
H         7.85576242315867   -1.25131634607215    1.23220202584489
H         9.48529565073719   -0.59319246471524    1.42737310201908
H         8.09836207384206    0.49379079307855    1.36826268321612
C         8.81264406973233   -1.95973269330468    3.68088383012549
H         8.24391856028197   -2.75737861418428    3.20772330119954
H         8.76373569607486   -2.06553754114115    4.76203801079468
H         9.85148963989357   -2.06739000461756    3.38025615320947
C         9.15638162996690    0.48845693882600    3.94527168115215
H         8.93271277319325    0.50037422807343    5.01072632109001
H         8.95744474639930    1.47603727102701    3.53922248592090
H        10.21364007136020    0.27781409590159    3.81353144121625
C         4.45551890948703    2.11982560906954    6.53957479699250
C         2.35205833082057    2.37480077651568    6.01476234707342
H         1.47518539214600    2.33020854495207    5.40387167280248
C         2.51962379951112    2.85473154087755    7.26527078356295
H         1.79868777821619    3.29576860974734    7.91708595121182
C         4.46792819506212    3.13526653387815    8.85274272579816
C         3.41852368675253    3.78622217225012    9.75534416262327
H         2.99378276102613    4.67195308732132    9.28882192998942
H         3.90114683973994    4.09296301346847   10.67954187623016
H         2.62379642004970    3.08812556094558   10.00961289293874
C         5.05794708004367    1.92116346008836    9.57423687705734
H         5.80859373942926    1.43457017384222    8.95890181230993
H         4.27545606849639    1.20106537641668    9.80635835876719
H         5.52601038632098    2.24080204551763   10.50077059127185
C         5.54600150291552    4.17315084366965    8.52777929322241
H         5.14069618074524    4.94878213649780    7.87975932723406
H         6.39699737998552    3.71649181640378    8.03001412563871
H         5.90212607841154    4.63512280345205    9.44399401632300
C         4.00287999211720    3.82241686860482    3.17629396243060
C         3.36168997415699    2.26580739755337    1.78611821382291
H         3.07942809996603    1.28551015349584    1.46455433431276
C         3.49059598366515    3.41037763323536    1.08236403357241
H         3.33143431687527    3.57909109374405    0.04057962603503
C         4.20296206738337    5.78186797640368    1.59430084302446
C         3.99258859727659    5.98865345521449    0.09341636120189
H         2.96111777428157    5.79688502198987   -0.19421914977058
H         4.65909801203446    5.35586451677257   -0.48791711533298
H         4.21876008591135    7.02409318212555   -0.14718629298594
C         5.67173587201986    6.06066316942013    1.92621962649430
H         5.83473113261536    6.08419892931033    2.99994921116989
H         5.96534704620897    7.02431474739123    1.52025196249987
H         6.30741496330892    5.28951388473351    1.49346689272508
C         3.26782416429611    6.72071101783639    2.36019419804064
H         2.23038596600359    6.51339023467967    2.10457583959732
H         3.49343335890196    7.75090829639772    2.10041674236744
H         3.39413491854746    6.59949927610632    3.43170201645978

