46
CSD_code = FAJZIB | q = 0 | S = 0 | Stoichiometry = C13H20N6NiO6 | MND = 6
Ni        7.25904294721066    3.38504990610224    8.61796979024049
O         6.56568759626870    3.30083517389718   10.29797754956043
N         5.89974192770392    2.21411991635002   10.24647169113962
O         5.89908822039624    1.64955442613716    9.15633755188719
O         5.31572601071990    1.82673560215761   11.21482781465543
N         8.90846883234287    4.55891932448987    9.32684325659041
N         9.17851332067351    5.81383571103811    8.92902787433624
C         8.35289098570235    6.48326480282921    7.96073992361005
C         7.25883328707035    7.33464400688760    8.61834728110227
C        10.26706082897734    6.29346016276272    9.56747748536985
C        10.70405564385351    5.29440119906685   10.41310568798797
C         9.82138685406714    4.22200124423521   10.23165008704734
C         9.81404864919622    2.89884520776717   10.90060870072552
C        10.83025915070640    7.64408895117386    9.31615100532301
H         8.98879891750235    7.11625541661853    7.33733403771698
H         7.89702401087074    5.71091601561485    7.33206932920151
H         7.70202739563276    7.97431853984812    9.38276363512800
H        11.54924998691695    5.32734647656821   11.06882288710718
H        10.81259408421265    2.63652532960439   11.23881543084173
H         9.14695123859005    2.92448117918609   11.76200604391313
H         9.44894212331536    2.13780416343880   10.21148048473149
H        11.71901018738427    7.78305014014773    9.92448601123368
H        10.11394343529247    8.42596360450640    9.56468754347102
H        11.10738225822727    7.75745992232866    8.26826793188717
O         7.95206716345750    3.30145180658312    6.93783227593630
N         8.61892263491238    2.21519618915854    6.98879929830086
O         8.62101785316311    1.65068567155955    8.07894645267326
O         9.20202099097775    1.82808111178520    6.01980896683010
N         5.60883832417962    4.55866415174345    7.90923306752717
N         5.33929632271973    5.81380130453250    8.30667272725976
C         6.16474170469910    6.48285635085603    9.27536179950755
C         4.25132012853402    6.29390958703264    7.66757356095093
C         3.81424249894082    5.29496614192922    6.82188771347848
C         4.69625106083033    4.22210589699305    7.00399364813385
C         4.70304467183857    2.89878010526022    6.33532434976920
C         3.68864795177608    7.64482462587109    7.91851275535624
H         5.52877057040415    7.11550223489828    9.89906509019319
H         6.62056722253833    5.71019233906202    9.90368342072266
H         6.81567722475194    7.97485116035738    7.85436619178572
H         2.96939171881655    5.32821248922210    6.16574092957320
H         3.70266369835044    2.63261098308953    6.00531050963562
H         5.36290347049792    2.92656538916272    5.46837024570283
H         5.07638925708152    2.13942297400758    7.02196558785367
H         2.79957496688780    7.78376732300544    7.31063385897040
H         4.40502069765554    8.42638606692606    7.66914234090066
H         3.41220197415345    7.75878967420715    8.96650617413083

