70
CSD_code = FAJZOG | q = 0 | S = 0 | Stoichiometry = C22H37BN6S3Zn | MND = 4
Zn        6.67911318647347    8.88909098948609    4.76486674142068
C         8.29026132090608   10.04702790320347    5.13508777195061
H         8.99083065861979    9.54010949466539    5.78904342882217
H         8.81092965295221   10.29439383644111    4.21689005197056
H         7.99992109936744   10.97546461859437    5.61389257444166
S         6.06319001353383    7.00748711055222    6.43465826220220
S         4.34207452931986    9.99154470035198    4.57857675139581
S         6.59730725405124    7.48472236242473    2.58945067897489
N         3.52722132808749    7.24171367947850    5.51824040567006
N         3.79941870968694    8.00839916939902    7.56298512938521
N         3.64010008647390    7.86947183655781    3.05246983242523
N         3.84662490009941    9.74204107834791    1.91522688248294
N         4.90605688066199    5.83258715576275    3.90695064847805
N         6.89768846928539    4.96231011545751    3.56288493809911
B         3.65287834572396    6.71507265182791    4.07455045123475
H         2.69794513753496    6.03013473733218    3.85647096878965
C         4.42638199337026    7.44992317222682    6.49650909108781
C         2.31839546492433    7.69199166390297    5.97209342996490
H         1.44333717146010    7.64522528007363    5.35862990263306
C         2.47893391395583    8.16498521078800    7.22517366648450
H         1.75288624506905    8.59542121773794    7.87841477345917
C         4.41899102674163    8.44110640942980    8.82076340524001
C         3.36494829617567    9.07906170443511    9.72766670881130
H         2.57377232423561    8.37440981889941    9.97447734267501
H         2.93514171248444    9.96521065023507    9.26666494022752
H         3.84415449720525    9.38134947255538   10.65530407740366
C         5.01201041428703    7.22179716857169    9.53175177856543
H         4.23084957446944    6.49802204414976    9.75623123696226
H         5.48011643569521    7.53200559897493   10.46160280454243
H         5.76122704357189    6.74404400612799    8.90761817106282
C         5.49610765842226    9.48503995318057    8.51195153469935
H         6.33606943553989    9.03425944242893    7.99118650501135
H         5.86154574646554    9.92377452871901    9.43611273856669
H         5.08440717316357   10.27402613821563    7.88495781217974
C         3.95423121761872    9.17399515933236    3.14325094390201
C         3.34657048615289    7.61029342424133    1.74225636544734
H         3.07935611291057    6.62660472154962    1.41787661012072
C         3.47295566587786    8.75456190914201    1.03912491718675
H         3.32745860349284    8.92049562575263   -0.00512079164819
C         4.14287104705624   11.13473458764364    1.56078698953301
C         3.95431350070917   11.34037900175040    0.05658987419394
H         4.63960210224950   10.71751944448816   -0.51344386575840
H         4.16833199684689   12.37952129775590   -0.17987314531133
H         2.93090644974858   11.13239679771796   -0.24800774688491
C         3.17907333299071   12.05716304451678    2.31191061421469
H         3.28818740295422   11.92958897174408    3.38473441752918
H         2.15016625213805   11.83394345500477    2.03621726018417
H         3.39242773602820   13.09230355845017    2.06101763080461
C         5.60028773905061   11.44069613169064    1.91807140649263
H         5.74266702286362   11.44942079642328    2.99490959642093
H         5.87993723916567   12.41511151346205    1.52769176035599
H         6.25755141849873   10.68634039829724    1.48900981676734
C         6.12679984346896    6.06650148421574    3.39328816596096
C         4.91568868243219    4.56607024893836    4.42249422662146
H         4.05213919347849    4.15621733402620    4.90264946053009
C         6.13504791093002    4.02736447813700    4.21599673504317
H         6.49770812946574    3.06182472797857    4.49047641814621
C         8.30835555644256    4.80790254929454    3.18979598329691
C         8.81239907530914    3.42895383046425    3.61985185446054
H         8.75628135875221    3.30992979300682    4.69929027780374
H         9.85419503056793    3.33406454049854    3.32467148980390
H         8.25360812304016    2.63197770934656    3.13407506790525
C         8.43948415787791    4.93183084535329    1.66945529100856
H         8.08230836253911    5.90098372189142    1.33428298761323
H         7.85882532502603    4.15520626323595    1.17533330620377
H         9.48173706484276    4.82661544392012    1.38202025835294
C         9.13427105403470    5.87779833863797    3.90985889489857
H         8.90838482878043    6.86780854617897    3.52417775822432
H        10.19375799293147    5.68699396792388    3.76437948440060
H         8.91617528371216    5.86476141745530    4.97634424883875

