61
CSD_code = FAKBAV | q = 0 | S = 0 | Stoichiometry = C30H24MoN4O2 | MND = 8
Mo        5.69429495631827    2.85463116492086   15.93132345740226
O         4.66070228082567    0.88932138391480   18.08687732540620
O         7.37586340702415    0.43703733572987   14.98415663144704
N         7.21612271623121    3.37109536794667   17.22978032323518
N         8.77329884552073    2.89042108379813   18.84980766122261
N         6.48012153145424    4.33117206935274   14.66192472340232
N         4.74835781021357    4.60712841961007   16.59902266559084
C         7.91470784495677    2.50705038270541   17.98226755454827
C         7.44249707752576    4.72527141976362   17.56496065869268
C         8.26150722432106    5.53026009142050   16.77777685696302
C         8.38835733644410    6.88082084861567   17.05202559698450
C         7.71596179612743    7.44148684227532   18.12338973791590
C         6.94428512512942    6.63592586685816   18.94555639647208
C         6.81488629328612    5.28729575671569   18.67612096430819
C         9.41911628706949    2.01051534188156   19.68830355606384
C        10.75108621524940    2.26915919176788   20.02341349549495
C        11.42211673003254    1.45103887562659   20.90827656985180
C        10.77923476034319    0.36876829753081   21.48953567764400
C         9.45402661573485    0.11401759736063   21.17799963394960
C         8.77586631222551    0.92273064943843   20.28746419324483
C         5.05431471176537    1.62903200510968   17.30006935716020
C         6.77774321557120    1.34786664747377   15.34902510742672
C         7.41827162366292    4.18363461817723   13.73632289803444
C         7.91317733916128    5.23339319514160   12.97064757241461
C         7.43198319748543    6.51327548811375   13.16828903568985
C         6.46755121494615    6.71649587307068   14.16086698013813
C         5.93993536403365    7.99525783001666   14.50378275851890
C         5.05936438462671    8.14106410785661   15.52211275283805
C         4.61794934060278    7.02081888064102   16.28474255487749
C         3.75084023483784    7.11759126059551   17.37825572925249
C         3.42426475073670    5.96299808728289   18.06151417526285
C         3.94312229319177    4.74291949958679   17.64384040122929
C         5.09054150012005    5.73580978109044   15.93715772726104
C         6.02337644927574    5.58465807222714   14.88186043554653
C         3.43107079531957    2.23967594021072   15.61178518701518
C         3.99014444637327    2.79381416823321   14.44701263111266
C         4.99164158663100    2.03362091670046   13.82322658002798
H         7.72596072683797    1.44428669802491   17.74795405620506
H         8.80793454727832    5.08436663491605   15.95654161368379
H         9.01899735209670    7.49709890607385   16.42668433112446
H         7.80887769403898    8.49751719020561   18.33006184906593
H         6.44326673415544    7.06243930683294   19.80289756279792
H         6.22681619595728    4.64790716524665   19.32089602166352
H        11.24164671353089    3.11492971149445   19.56530174344195
H        12.45506708160408    1.65774308182728   21.15236778228166
H        11.30609909496406   -0.26718188922966   22.18613659437732
H         8.94410397172502   -0.72301822766599   21.63516747609518
H         7.73600598838728    0.73288679052521   20.05907467821632
H         7.79938451677092    3.17979633381630   13.59815664915961
H         8.67255343432324    5.03769990763863   12.22990932023318
H         7.79761119310372    7.34647515445541   12.58749209818105
H         6.27879218735976    8.85104291416693   13.93872686348156
H         4.67979480120558    9.11614336705567   15.78944017511116
H         3.36190336935468    8.07828482903478   17.67934258467487
H         2.77110862147891    5.99554668954408   18.91928107902392
H         3.69752812023818    3.83443406798857   18.17896373748950
H         2.63204840961734    2.78648293222349   16.10476818808776
H         3.29046222428345    1.16296410261932   15.62853181719490
H         3.66663573265972    3.75911447706798   14.05356161178054
H         5.43020603684217    2.41593143195346   12.90582944174018
H         4.87179163784064    0.95463406547265   13.82751716121698

