85
CSD_code = FAKFEC | q = 0 | S = 0 | Stoichiometry = C39H38IO3P3Pt | MND = 4
Pt        1.95773041023444    2.78466211324643    4.11224044829597
I         2.88551018349553    1.13298474665676    5.91830405052507
P         1.25525076461966    4.16427142174907    2.41863873098549
P        -0.04633592127105    2.80301015136686    5.32184401441810
P         3.28925403958098    1.35135045244887    1.98451772348167
O         3.89844032792894   -0.07295444184176    2.43928898987926
O         4.19458297376103    1.67714176882463    0.68083901540920
O         1.84585381738687    1.22845325195506    1.66197371785353
C         3.78371066889146    2.63534358170366    3.13649965675800
C         3.06164731057188   -1.13852108635317    2.84528865195448
C         4.01236683976399    0.86330120507813   -0.45677885632938
C         2.16173468250885    4.28378437427349    0.84319739314851
C         3.32674747647411    5.04803018357428    0.79962847807908
C         4.06504679376252    5.13022571659067   -0.36512159358453
C         3.64667619355365    4.45576383517924   -1.49989530129962
C         2.48471098866060    3.70426522557562   -1.46527568067588
C         1.74578505380666    3.61240787863911   -0.29966632372333
C        -0.46164106886075    3.96035707734717    1.83480575759523
C        -1.35114573311837    5.02023762179255    1.70252838513419
C        -2.61810087525364    4.80134802461208    1.19193471442125
C        -3.01447254185132    3.52873907463817    0.81887152131110
C        -2.14140791306060    2.46500601840799    0.97105015959355
C        -0.87297942317561    2.67804708275965    1.47760365546713
C         1.34362694088047    5.88905402605466    2.99352331418649
C         1.60613317907392    6.11652110434006    4.33851009567399
C         1.67274560634577    7.40530846612575    4.83636498387308
C         1.48429589521299    8.48007311390065    3.98372334573598
C         1.24627033125057    8.26278501655056    2.63491340413572
C         1.17891669449376    6.97468852442334    2.13693540586313
C        -1.60576758553964    3.60334294345602    4.79685013770237
C        -1.70057252707663    4.98804282087601    4.91597672285822
C        -2.87367036196453    5.63841495613503    4.58879727399233
C        -3.96299648325056    4.91407854301800    4.13145161071521
C        -3.86629632487526    3.54096901460250    3.98769197620211
C        -2.69272257107886    2.88523138798238    4.31492193326718
C         0.03377518780529    3.52181294476368    6.99758243193092
C        -1.11993427018496    3.65378721834533    7.76869941679667
C        -1.04993250542797    4.21053874489948    9.03141957150293
C         0.16378506360459    4.65507845468104    9.53234496397779
C         1.30822473179568    4.55013343491712    8.76153953138672
C         1.24293645633407    3.98808854726204    7.49904972723961
C        -0.57732883319188    1.07506441695306    5.53855108796051
C        -0.35123792689672    0.25522297183744    4.43414190972698
C        -0.69523381802887   -1.08123603625669    4.47526477332253
C        -1.25642298932108   -1.61132522131196    5.62668243431369
C        -1.45998163683600   -0.80496922819353    6.73326198962435
C        -1.12193061992716    0.53737926144087    6.69607153344781
H         3.64974719768573    5.58963384466585    1.68023389880030
H         4.97028232123592    5.71930995458165   -0.38589600108097
H         4.22601312152240    4.51740228789332   -2.40953443400595
H         2.15333631460500    3.18016598427115   -2.35028636053217
H         0.84680096106876    3.01545591763891   -0.27769035421122
H        -1.06444166818241    6.01716239300427    2.00243257806665
H        -3.29939334854371    5.63299915397757    1.08600869906085
H        -4.00349976485991    3.36695143973615    0.41612227236960
H        -2.44769282536623    1.46735952428978    0.69170841053480
H        -0.18250648211953    1.85482126183537    1.58252280284721
H         1.77251195104757    5.26253474781500    4.99188650140159
H         1.87478695386649    7.56988141535910    5.88462673647819
H         1.53452234692012    9.48891237713046    4.36571360725663
H         1.11586235076456    9.10272210780041    1.96808589560212
H         1.01383442291587    6.80700433149819    1.08091374089543
H        -0.85190164341718    5.55110899183549    5.28216977393070
H        -2.94120629464749    6.71141997185453    4.69561785613840
H        -4.88512517462130    5.42004495740621    3.88659709218081
H        -4.71166080211608    2.97411293530228    3.62586485474345
H        -2.62551109333537    1.81177613595515    4.20749572940519
H        -2.07413685425190    3.33356334404216    7.37231055315461
H        -1.94687430155530    4.30124237444243    9.62700907355495
H         0.21315236713515    5.08811846783328   10.52044608932458
H         2.25478586485549    4.90266940281238    9.14295553394079
H         2.14297727785955    3.90346077877530    6.90348785504233
H         0.12550648806414    0.67634141031826    3.55407642046655
H        -0.51309528631995   -1.71442224302405    3.61906295356014
H        -1.51760596291323   -2.65846435182595    5.66666551052583
H        -1.87523238647841   -1.22457321043428    7.63778633959109
H        -1.25824520251273    1.15133048854517    7.57379117156656
H         4.63203174185327    2.27856719976400    3.72306653488357
H         4.10472695399039    3.49924280619081    2.55197628986145
H         2.02574033478925   -0.93598920030743    2.56487703891786
H         3.13088495195175   -1.27057244530779    3.92621720095125
H         3.40523014033100   -2.04429956210236    2.34289968328247
H         2.94746263147380    0.70272665366163   -0.64424530303124
H         4.50118767807194   -0.10376722907705   -0.31833738271722
H         4.46079803763297    1.38700487681655   -1.30092574690016

