91
CSD_code = FAKGII | q = 0 | S = 0 | Stoichiometry = C42H44N4Zr | MND = 6
Zr        4.21463600799314    8.96960284285919    0.16771754192618
N         6.39821252546052    8.77789718959995   -0.53869532073805
N         5.42468271387756   10.76887386099398   -0.16102283184047
N         4.68241507749132    8.90261633655162    2.38466513793770
N         2.80948719923159    9.82295832944467    1.57791993476635
C         7.18290822653280    6.54075369705925   -1.04247860157142
H         7.00333629158004    6.10952620777730   -0.05787637646663
H         8.04292288491856    6.04754762747759   -1.48758374395612
H         6.30653458140993    6.36084895116307   -1.66336658383619
C         7.42758122370523    8.01686310993478   -0.93306952106528
C         8.67076273017905    8.54612413434094   -1.22523516302863
H         9.47569815846626    7.90571028095942   -1.54700807816839
C         8.87043588066385    9.92085710642472   -1.08322948932337
H         9.84472181545170   10.34635821124048   -1.27821921949108
C         7.83309511021027   10.72350322924887   -0.69591708721703
H         7.97556236555951   11.78380725007560   -0.56210044587949
C         6.55801047275942   10.14011635856670   -0.45761785286132
C         5.38556997710618   12.21663479907812   -0.11406151224062
H         6.00618829746981   12.64657432819242   -0.92115147184656
C         3.93223180220450   12.66034269928851   -0.35071033173035
H         3.66197944364144   12.52641879215584   -1.39700957391866
H         3.80210681422595   13.70855124211242   -0.09017684534559
H         3.27390055756768   12.05010880163860    0.26802223067567
C         5.88044499347799   12.78213519168686    1.20698019020009
C         6.14563436778762   14.14147017803036    1.32660952970012
H         6.03456197214473   14.78657600297703    0.46585854198833
C         6.55295787028368   14.67482767619875    2.53579854473823
H         6.75510181303420   15.73319628327543    2.61557261155173
C         6.70110162713061   13.85563798035716    3.64306307367061
H         7.01419033928687   14.27398257625476    4.58842991425279
C         6.45145710777337   12.49920312524136    3.52913439480702
H         6.56513548545246   11.85106067031914    4.38620950702148
C         6.04794548221735   11.96580721621650    2.31693845780916
H         5.85819042809145   10.90305506338259    2.22235493420698
C         6.82264197360831    7.92836968219823    2.92287804529818
H         6.90417567162992    6.85830199292706    3.11435479284155
H         7.60994005256381    8.42756719735372    3.48594138146623
H         6.96685616772397    8.11723302869743    1.85667250887451
C         5.47226826936692    8.43206399270522    3.35185247500531
C         5.08283807131085    8.41878397220858    4.67881243864716
H         5.74522365432249    8.04206171424024    5.44157016286176
C         3.81096897038134    8.89860690483665    5.00124369192896
H         3.48112110437541    8.89003813532673    6.03036027819480
C         2.97998310775307    9.37508002360841    4.02211641753502
H         1.99797895429937    9.74149728088487    4.26910225349672
C         3.42995180601094    9.38259588535759    2.67535491397382
C         1.48673868550002   10.43862275500676    1.65810126609865
H         1.32428166879656   10.91330376842731    0.67261472516679
C         0.39557145143137    9.36886635411162    1.80772512803922
H         0.59854076416691    8.57304254275737    1.09208114655856
H        -0.58768706867904    9.77979837219189    1.59491236155878
H         0.39629741103935    8.93749796736890    2.80505811646968
C         1.41100731517370   11.55341390385864    2.69248987519458
C         0.22075230748539   11.89649987367283    3.32336085384489
H        -0.68593863097777   11.35150908928946    3.11285328470937
C         0.17740372556561   12.93828813096104    4.23456881764590
H        -0.75785424273441   13.18557577325093    4.71593863135891
C         1.32019288635315   13.65946888041067    4.53119611611239
H         1.28300894970504   14.47000453605733    5.24391260407112
C         2.51010605450101   13.33081691992306    3.90499741361749
H         3.41377210443268   13.88226084781866    4.12107841136018
C         2.55203683671433   12.29171962094826    2.99458046928654
H         3.49153099397759   12.04237802395716    2.52396679661626
C         4.09565468751338    6.71161270325667    0.37190097285922
H         4.16211098023228    6.22448098385410   -0.60756006432685
H         4.91358996093528    6.37104998007194    1.02147792249904
C         2.80286573883750    6.46290946884598    0.99771788977407
C         2.66279738337355    6.37226062757969    2.39521149373766
H         3.54128647792303    6.47249194438430    3.02205826772929
C         1.44069614263610    6.12131295147096    2.98369470654399
H         1.37113877219624    6.05829638248370    4.06127934941954
C         0.30875883045202    5.92523081445243    2.20719193260313
H        -0.64424305513021    5.71560116847936    2.66908288936989
C         0.42301883043337    5.98297376421975    0.82602095393969
H        -0.44780714210460    5.80959909170713    0.20835217319335
C         1.64072755998133    6.24782601795363    0.23285433384124
H         1.71312436974314    6.25743495121090   -0.84889371662206
C         2.79539922365926    9.24852585168964   -1.57378563137643
H         1.93117735990529    8.57475584648921   -1.59253181068010
H         2.47422530929428   10.29196176300437   -1.67918020668363
C         3.82862786891677    8.88003235326700   -2.53261552556744
C         3.97596711478685    7.55796724209086   -3.00178576841618
H         3.23713122224804    6.81446396739032   -2.72322504786677
C         5.01166068890699    7.20056886328602   -3.84214397381135
H         5.09199258800635    6.17837010180625   -4.18782900124326
C         5.94035407485524    8.14145942669079   -4.26046770648125
H         6.75511883389963    7.85711615150409   -4.90864422495628
C         5.78810864770876    9.46041154090220   -3.85798820589212
H         6.48405367777272   10.21017262807674   -4.20901936235959
C         4.74987501744596    9.82806295536377   -3.02822839559395
H         4.62717817538607   10.87153593798909   -2.76068411619350

