81
CSD_code = FAKGEE | q = 0 | S = 0 | Stoichiometry = C32H42N6Zr | MND = 6
Zr        5.43951465610163   11.96796442979510    9.08446879868663
N         7.17624571983551   10.48431987381030    9.57296676026596
N         6.33696750985818   11.91614602190294   11.08571504427269
N         7.32344909899583   13.08341368447259    8.27334021567978
N         5.96664716094749   11.87027230373313    6.95716254351876
N         3.95870508477068   10.52593994191777    9.16067057285463
N         4.28893667375350   13.68095226134806    9.23854690804864
C         7.97405597617696    9.16282783377204    7.72547577969086
H         7.38068369271034    9.90744669305836    7.19554197786102
H         7.54052729627036    8.17458379879561    7.57119352741444
H         8.98866592572271    9.15129002594860    7.33042215659303
C         7.98459420158205    9.49982303155949    9.18852987153098
C         8.78615278377368    8.80390934381970   10.07976725498164
H         9.43400952633800    8.01436789518449    9.73400192146099
C         8.71587022503542    9.13514805236425   11.43266669830395
H         9.30881568347907    8.58727688724496   12.15206999218356
C         7.89454697258088   10.14952686799879   11.85193672458245
H         7.82052181113641   10.39494072434067   12.89913892537552
C         7.12870192215539   10.86263934077305   10.88949908944892
C         6.12629757565329   12.42321731123427   12.43012845750737
H         7.06880056439168   12.42324550427557   13.00541635763559
C         5.62085002019039   13.86907192037547   12.33166683949395
H         6.42213806226615   14.53149742687912   12.01014245688190
H         5.25013151913421   14.20699152868691   13.29779478956785
H         4.82017743473778   13.90043436342608   11.59410341893573
C         5.10019339491723   11.58720260189674   13.16909025014772
C         5.24362795372051   11.28164742040380   14.51514593318155
H         6.11302297594184   11.63016310712908   15.05630321647299
C         4.28064631300829   10.53326568033073   15.17087312762371
H         4.40276663415774   10.29769399574978   16.21829341433535
C         3.16468724474295   10.08658692714422   14.48546118730030
H         2.41330901193709    9.50281946398205   14.99690979415977
C         3.01698799296698   10.38885088316230   13.14097877156512
H         2.14514027604371   10.04030767287988   12.60544935221216
C         3.97858882993070   11.13479504353216   12.48294941314540
H         3.89163557920665   11.36728648505319   11.42177492491419
C         8.67749442438293   14.19186423918821    9.92684153110372
H         8.06675462910403   13.55521001232857   10.56641801571718
H         8.46353810235827   15.23839621804495   10.14477042524325
H         9.73245371533906   14.01409764700864   10.12936715316403
C         8.36026799824946   13.88849342925382    8.49100302158125
C         9.10561243992666   14.43775866362866    7.45958219430791
H         9.94293291964355   15.08338086795482    7.67103394037015
C         8.73149398498349   14.15299015453431    6.14654126218265
H         9.27815104465877   14.59325720726569    5.32397718002910
C         7.67084167109402   13.32101175819825    5.89736364658697
H         7.36410048340580   13.11491655453384    4.88458301070310
C         6.96844888787944   12.74804707506049    6.99268103517797
C         5.42845927863082   11.44041355412341    5.67853637241502
H         6.23865158744225   11.25552766789205    4.95120866424624
C         4.65995764954528   10.12884395651969    5.88926319094338
H         5.34986990822115    9.31050249856752    6.08588584583254
H         4.07113387728783    9.88925308347609    5.00554250703523
H         4.00505020366788   10.25220762021778    6.75054604880295
C         4.48677537632885   12.48312943468764    5.10963738140426
C         4.45910175421606   12.77557584858413    3.75334596436263
H         5.13129986283772   12.26262130249022    3.07863346432145
C         3.57645421430657   13.72021707450870    3.25748595158104
H         3.56481872448656   13.94365622255958    2.20039640953371
C         2.71226952377107   14.37823956684762    4.11473343632260
H         2.02403663517768   15.11567695773801    3.72815198663451
C         2.73567911961600   14.08932279273963    5.47001923906714
H         2.06024429113639   14.60285138094684    6.13966982069485
C         3.61779466810863   13.14716842698149    5.96834658483508
H         3.66581997875489   12.91894962928764    7.03294203624095
C         4.24034348786668    9.17252643157156    9.59900232292518
H         4.01049663453159    8.43358448390134    8.80509235412526
H         3.62523865572227    8.89093914790717   10.47584237481633
H         5.29062299281213    9.05676696867179    9.87803134460747
C         2.54404743203193   10.61737334592019    8.85289611197340
H         2.22570461672072    9.81283590353563    8.16129126037650
H         2.30477741362354   11.57636155730150    8.38887883110247
H         1.91762977660487   10.50238898533307    9.76057185694751
C         4.75622376158479   14.95841242988187    8.73537631536554
H         4.06181297093378   15.37863217443417    7.98203699218479
H         5.73874117461351   14.86503533596424    8.26628143652171
H         4.83081048993596   15.71080022899570    9.54631344405154
C         2.96201690070807   13.87190956219554    9.79300056252760
H         2.94050634900555   14.71022041872370   10.51669225638227
H         2.61818252318476   12.97244014565325   10.30757739767280
H         2.22232456129214   14.12972568717644    9.00821135067184

