89
CSD_code = FAKGAA | q = 0 | S = 0 | Stoichiometry = C36H48N4Zr | MND = 6
Zr        0.55482250976109    5.92604391738748    3.12774068816759
N         0.70482281334654    6.39650594520867    5.37427595758815
N         2.28420444941518    7.11303960069833    3.95248125233459
N         0.66036566345923    6.38430016142363    0.87612197170659
N        -0.31881110317570    7.82661205465543    2.28693606668558
C         0.20100468132864    6.24602448548727    6.59938305259562
H        -0.76148636942838    5.74571499636396    6.65144541919545
C         0.83108983066629    6.67551941354964    7.74493800713840
H         0.38020086036193    6.53212169267203    8.71282252584153
C         2.07937988722004    7.29920288515762    7.61411668536773
H         2.60578344739059    7.64002876113482    8.49455614941491
C         2.62839828198404    7.47557230586168    6.37561835041121
H         3.58589843625584    7.95797920435686    6.25759075418877
C         1.91824518445271    7.02405170275760    5.22216466520309
C         3.57246940936016    7.66577726259953    3.59361331132784
H         4.38121121473600    7.11268213691143    4.11101811110249
C         3.74265110506668    9.13857149831483    3.93023057708258
C         5.00849065220740    9.71159507124012    3.87039463939726
H         5.86031976089997    9.09953057202837    3.60679133957864
C         5.18957427328048   11.05298377275135    4.15201601574035
H         6.17908813583332   11.48417181214480    4.10008034880540
C         4.10675923821094   11.84209183055729    4.50417445891646
H         4.24829679044204   12.88991789499595    4.72469942740171
C         2.84592497338445   11.27823224864793    4.57767960675730
H         1.99450486790670   11.88365292176535    4.85251471295131
C         2.66730138593003    9.93581073235503    4.29316058504866
H         1.68144834535680    9.49947487910754    4.35406043266230
C         3.75122773529351    7.45622530885685    2.08208393045049
H         3.66694507550635    6.39335847318227    1.85111592393430
H         4.72164521228341    7.82210613540950    1.75327140615348
H         2.97269186125528    7.99214631601485    1.53853568119953
C         1.00764378760108    5.98189298652998   -0.34652154245471
H         1.57676854012390    5.05803024352406   -0.39114362503100
C         0.67967627786790    6.65994301187390   -1.49823265211465
H         0.98662746214951    6.29368859064737   -2.46378887884292
C        -0.07066655720979    7.83746236967664   -1.37672279079615
H        -0.35351367139619    8.38933803166007   -2.26208246046429
C        -0.44271029637098    8.28585815991048   -0.14104296297640
H        -1.01586093036872    9.19287892890908   -0.03016278231552
C        -0.05782418692556    7.54753357947479    1.01887638636142
C        -1.13633622662619    8.96800183465069    2.63729827341656
H        -2.11625935935084    8.90657082464156    2.12376188362868
C        -0.52333643048123   10.31412313776756    2.28518395591358
C         0.80593497182354   10.43786411545984    1.90907531379215
H         1.42381495697574    9.55430283282656    1.84916528644985
C         1.34447338868518   11.67707724603936    1.61024910486652
H         2.38376468801231   11.75299459450561    1.32548747317382
C         0.55750656608688   12.81218243613490    1.68242059106640
H         0.97616369883648   13.78060706901675    1.45113190896994
C        -0.77410747202844   12.69923133595007    2.04748885448420
H        -1.39769787407617   13.58030869664543    2.09843817986712
C        -1.31003236774570   11.45959891616437    2.34328992595014
H        -2.35329437657245   11.37823515891685    2.61655935287906
C        -1.39270815619651    8.89503044946312    4.15043863810555
H        -1.87344448533184    7.94585791823881    4.39120498026444
H        -2.02938556990920    9.71539998442172    4.47484987416734
H        -0.44699400830268    8.95153488846929    4.69003881109888
C         1.73095962085370    4.06784913141948    2.61890133095802
H         1.07445221350502    3.37444895634321    2.06364745678727
H         2.53222804944319    4.34554284596779    1.90667683518945
C         2.39831638172106    3.23533059929801    3.72661222702502
C         1.37831830782885    2.89427810557755    4.82090295090945
H         0.54489639159010    2.33451982264326    4.39732825354963
H         0.99727600872808    3.81208769464535    5.27819428459751
H         1.83814160755534    2.28143211178142    5.59637617884217
C         2.95338298710724    1.92000560238043    3.14903880527388
H         2.15062399280213    1.32165084764078    2.72220340144696
H         3.44520405848879    1.32837533417853    3.92002619829002
H         3.67928748481954    2.12483819999573    2.36419679986396
C         3.55996186330874    4.00991231184846    4.35892841861147
H         4.04975398603780    3.40959780457289    5.12551107424237
H         3.19494942207162    4.92569582682998    4.82209905842825
H         4.30418020717813    4.26734996493673    3.60610175268800
C        -1.40792997944584    4.94126054818103    3.65139308677737
H        -1.19997644125863    4.01414505902096    4.21476423011956
H        -1.95035549326606    5.59830239525922    4.35893180725118
C        -2.41116851636193    4.56043176767737    2.54955368716768
C        -1.71432831192012    3.73452443323145    1.46026363735351
H        -2.42599333975433    3.43769232894571    0.68968253310716
H        -1.28499851268779    2.83014530470674    1.89052604567216
H        -0.91772589174490    4.32243714365260    0.99512371001919
C        -3.56156968462442    3.72182102103058    3.13700789324703
H        -4.28948561217275    3.46099648090775    2.36988805178602
H        -4.07705837343180    4.27659635925832    3.91890488228235
H        -3.17920961580384    2.79933444239407    3.56997693389713
C        -3.01165466390108    5.81661266996474    1.90873887138952
H        -3.74082555144477    5.54722836631356    1.14477500745209
H        -2.22894752428299    6.41208679206939    1.44062781511984
H        -3.51757605064606    6.42477639251190    2.65780362686090

