24
CSD_code = FAKJUX | q = 0 | S = 0 | Stoichiometry = C7H9N2O5Re | MND = 6
Re        1.28504121682890    2.10300153366235    1.64324118066762
C        -1.13604023502963    2.17529502659664   -0.07242894265996
C        -0.60755431416988    3.65341988453693   -0.17273855155415
H        -0.87208910190201    4.07419309026386   -1.14891086670977
H        -1.11725901282937    4.22314739833234    0.61025359214665
C         1.62485385313919    3.39119039882092   -1.13694719868788
H         2.67241183693423    3.64474777483000   -0.93793265807016
H         1.27537830454233    3.98788176313950   -1.99035040680255
C         1.51849871474224    1.90477583953828   -1.48530751697232
H         0.48113149262308    1.66615433038854   -1.73379215894969
H         2.13191321533567    1.69068661702553   -2.36817389462932
C         3.06964495439931    2.74490464871230    2.05638837647088
C         1.52154445405752    0.52750318931415    2.76704829915048
C         0.49881967910283    3.07639321142706    3.13377171951003
N         0.84364384417685    3.68886396714046    0.07417600475818
H         1.09265157888479    4.63565878385198    0.36556367276696
N         1.93462035492283    1.09986520926397   -0.32402249466981
H         2.93912109299832    0.92423374649338   -0.36167013146262
H         1.46927271923779    0.19161824220521   -0.35785650837421
O        -0.55766691766465    1.47308319797661    0.80360475738323
O        -2.01841752703253    1.81805296706568   -0.82919222960454
O         4.13140807739264    3.15396091943026    2.22557301520070
O         1.62074567559649   -0.42787735271158    3.38579634184378
O        -0.02007395628700    3.66304561269559    3.96730659924843

