60
CSD_code = FAKJEG | q = 0 | S = 0 | Stoichiometry = C22H31N2O4V | MND = 6
V         6.76696728446347    4.43820481246960    0.15089819452016
O         5.73777562068549    5.29816566457693    1.19370470203575
O         7.02725793487964    2.99786019712013    1.00557346146659
N         6.54171311101407    5.89186098265027   -1.11504330418090
N         7.64376388976753    3.59644025079927   -1.34915337681595
C         4.41179961628859    6.74079430562688    2.58556569500634
C         5.16409908348119    6.41912973532358    1.31034118647566
C         5.23535693331623    7.33247292497256    0.26997762458239
C         5.94647622077354    7.05307349387616   -0.90856187349832
C         6.00545819619857    8.16626577956472   -1.93058970180151
C         7.24502684990933    5.75460583396329   -2.36478758581294
C         7.53986387152443    4.28058738254463   -2.61153340396379
C         8.76926100379542    1.82688093217066   -2.66773815021853
C         8.20253413004621    2.39834893104137   -1.38614350715682
C         8.29381498368627    1.57571791052176   -0.25453067012521
C         7.67897316249706    1.91856871426881    0.94077959177284
C         7.71838881682354    0.99951006087913    2.14281643336921
O         4.74268532610198    3.35051439769635   -0.72161908202775
C         3.84811507361773    3.95865348281574   -1.62933024609542
C         2.82320379732413    4.69189321382572   -0.75776934586035
C         2.76529142888761    3.81760414965406    0.50567912856411
C         3.93111396384936    2.82804291471187    0.31588164807061
O         8.32840869683360    5.21600252927051    0.94246925582344
C         9.19234012742314    5.85182506752704    0.19742750010245
C        10.22607133776225    5.17320486200168   -0.47502005367437
C        11.14396391583068    5.86203105943198   -1.24118869812979
C        11.07214157796452    7.24153707835976   -1.36278039236361
C        10.07650077813142    7.93040999863254   -0.68704192439808
C         9.15289907885297    7.25476867197520    0.08442960351533
H         4.85144479406014    7.61156961683929    3.06842625023722
H         3.36562667735960    6.96186909630795    2.37611447060270
H         4.47501799958634    5.89358357720154    3.26599689644297
H         4.75019548972250    8.29048975164636    0.37868193900163
H         5.54536904003032    9.06556812926443   -1.53141465520929
H         5.47887706394093    7.89608358102550   -2.84716772723525
H         7.04049766599218    8.39110020117415   -2.18611915606137
H         6.67240630971122    6.15198957810035   -3.21551253935014
H         8.19358646674253    6.30724917854373   -2.30737550786225
H         8.46157724013732    4.20405173791093   -3.20312568830014
H         6.72180791353540    3.83147594622505   -3.19922748832479
H         8.70670907813453    0.56142817169310    2.25541283175130
H         7.47001970979812    1.56687617819544    3.03799635244966
H         6.99480229684692    0.19153358893942    2.02631868444858
H         8.81214838412684    0.63214392261612   -0.32685376795623
H         9.12289707533742    0.81351755463044   -2.50097320382900
H         9.60970935499481    2.42506080295805   -3.02162851041633
H         8.01429967567551    1.80225090535081   -3.45338037067706
H         4.41627611731538    4.62125416210415   -2.28147880717854
H         3.35372895033303    3.17895911713223   -2.23243489068819
H         1.85809779706563    4.78282846591949   -1.25234225415766
H         3.19535562392573    5.68858126637416   -0.51829413039223
H         1.81689869375691    3.28855553309624    0.59068740911450
H         2.90739526959276    4.41711989859427    1.40208979986188
H         3.55012832163048    1.84068923903438    0.00931308880735
H         4.55668965304540    2.71841741532832    1.20256200731094
H        10.28305552607784    4.09725255502830   -0.36756181011362
H        11.92982517446068    5.32023985491835   -1.75118387560968
H        11.79013996726612    7.77485362491471   -1.96878405105832
H        10.02259407088263    9.00852050634731   -0.76446195707462
H         8.37435678719442    7.78671150430830    0.61670795228739

