50
CSD_code = FAKMOT | q = 1 | S = 0 | Stoichiometry = C22H20N5O2Ru(1+) | MND = 6
Ru        2.17025617987463    2.10370367422163    2.54490193643912
O         0.69986310975770    2.82221961532431    1.27369086137372
O        -1.28263341569364    3.79839520111114    1.17116176384532
N         0.98111229780693    3.29785697131796    3.93759220392888
N         3.64491735307521    1.60826136699835    3.78160547337762
N         3.32718455330325    3.69369627575806    2.32929637619834
N         2.87753249384558    1.11568238483892    0.99406452086497
N         1.00227834769683    0.48907319476986    2.64003724956147
C        -0.33934069959253    3.35224801007627    1.78083959322994
C        -0.37488118617264    3.40161071138245    3.35393874376223
C         4.61807201271446    2.54502585648829    3.93227814258949
C         5.69836881184827    2.33966197552428    4.78898289412665
C         5.79767797133245    1.15593574673153    5.49479372816565
C         4.80859214267687    0.19440492486038    5.31833274224340
C         3.76161741086520    0.46235762161810    4.45997469637308
C         4.43510490891907    3.73581003173351    3.10574851703857
C         5.30385201564924    4.82579811166145    3.06105025832727
C         5.03235826820230    5.87456277698481    2.20094958126788
C         3.90068110464584    5.80742763053218    1.39635452877343
C         3.07842824490010    4.70015416829913    1.49335191882020
C         1.97791038484221    0.23148237842507    0.50339205669136
C         2.12960422751880   -0.32146628562372   -0.76734390368771
C         3.22597608022922    0.02275658386691   -1.53524014534498
C         4.16351687512883    0.89845681551733   -1.00200219200463
C         3.94503030026964    1.42114999318827    0.25805624954758
C         0.91420553184565   -0.13001404404869    1.44070589808170
C        -0.07815513929504   -1.07545976353303    1.18569219195605
C        -0.97494002473774   -1.40909908932963    2.18371228242215
C        -0.83491569922163   -0.81377405484822    3.43098213714701
C         0.16231956982991    0.12646788966078    3.60778586306229
H         1.37777671961896    4.24253789652640    3.96095022625447
H         0.90760586030626    2.99859040912544    4.91190720282645
H        -0.88152013491000    4.32268910095990    3.65606572520188
H        -0.98619034645381    2.55500053694619    3.67729953927784
H         6.45386515917173    3.09977242210100    4.89822697641621
H         6.62595277684559    0.98126209807796    6.16189796131185
H         4.85095099968485   -0.74783620783513    5.83933769075227
H         2.97618933406149   -0.26697177839890    4.30294643798821
H         6.17859308973715    4.85271245822523    3.68917754377465
H         5.69149634698729    6.72648387306614    2.15416319492837
H         3.65880025139167    6.60001779711128    0.70780843264582
H         2.18702684101735    4.59957816468590    0.88471065885874
H         1.39192504806618   -1.00443446925793   -1.15404662308001
H         3.35226722562440   -0.38490826610466   -2.52522964468982
H         5.04213967445051    1.18054627595532   -1.55854787953758
H         4.65752155888768    2.11010931637539    0.69682268127363
H        -0.15446870483442   -1.53654259792901    0.21546867988243
H        -1.75929109216047   -2.12534589215230    1.99985322645357
H        -1.49422257101289   -1.06479113610540    4.24572695773625
H         0.30268793145780    0.60514332511945    4.57017484354748

