70
CSD_code = FAKMIO | q = 0 | S = 0 | Stoichiometry = C27H36ClN3NiO2 | MND = 6
Ni       12.61459622800094    1.12730672072712    7.91731240989385
Cl       13.23410235756197    1.67514638709683    9.87698825399746
O        12.41476374975566   -0.65094934464061    8.47595686885965
O        14.99426460205667    0.41126500805661    7.59467904916040
N        13.00381295367002    2.85295851119464    7.18136376875850
N        12.04460616779562    0.68451533158394    5.96165297993884
N        10.29959518816439    1.48920770711804    8.01306331069212
C        13.09371439036882    4.01615872497072    7.81632098986090
C        13.30918651508116    5.21264534603529    7.15389971780099
C        13.43600113875737    5.20129583820734    5.77464833460037
C        13.33702863804804    3.98831704554424    5.11316072023680
C        13.12244507181862    2.83231600224576    5.84837163610129
C        13.01889567140382    1.47572477309558    5.21307869134626
C        10.67378761178778    1.12532053699187    5.68103282193472
C         9.80175269637792    0.95076996728327    6.89843917958339
C         8.56679207390156    0.32291487687412    6.86007218161732
C         7.82755846822269    0.24432150629133    8.02815657904420
C         8.33851150123647    0.81586834581706    9.18169897927075
C         9.58064287531171    1.42741076277678    9.12479292751397
C        12.16729835617723   -0.74963869185813    5.69647327025463
C        11.27595161277198   -1.54984836633378    6.60636822332994
C        10.29175758474805   -2.36625125063251    6.08990842396916
C         9.49350858419150   -3.14333943301290    6.91715054702003
C         9.77427607547151   -3.11280163220047    8.27915251253012
C        10.75645795651234   -2.32033927902315    8.84636684740799
C        11.50376274179406   -1.45596630134803    8.00017434825741
C         8.40234620821994   -4.01484684727873    6.31268383333202
C         9.04966006112347   -5.04883805937889    5.37998696567944
C         7.59005594527954   -4.76868815857087    7.36902477050855
C        11.09414028748908   -2.40965348427322   10.32943465355541
C        10.29143372278101   -3.49030731587487   11.06213731121788
C        12.58383145488802   -2.75369676711261   10.47086066608221
C        10.81924775800546   -1.06628084545134   11.01269348040984
C         7.43055488062102   -3.13694461768604    5.51097414097248
H        13.00796763518533    3.97322830690546    8.89432235663210
H        13.37883036510145    6.13157722152987    7.71301747396235
H        13.60672115347900    6.11385769226213    5.22364182326440
H        13.42879430415345    3.93184680459404    4.03907080594663
H        13.99605558713025    0.98772913487098    5.30716340811945
H        12.76333384185040    1.54722579866637    4.14460917926693
H        10.69067270485623    2.19460179599883    5.44139990143436
H        10.25488837127586    0.58243149830287    4.82291609727848
H         8.20020153875145   -0.10360748945604    5.93976097049537
H         6.86728714683172   -0.25007467599909    8.03552628964274
H         7.78643085171659    0.78848739892802   10.10787496572798
H        10.02416763654818    1.88806704358602    9.99730890976515
H        11.92390952673252   -0.96796376119093    4.64393010488579
H        13.21075876842152   -1.03092989340303    5.87910032548548
H        10.15992512061314   -2.39513533293594    5.01613456588589
H         9.19628750529521   -3.74213525795932    8.93058186041312
H         8.28989170541338   -5.69796293200388    4.94856962643552
H         9.58691398276851   -4.56556610667312    4.56835363065239
H         9.75542186803136   -5.66262966102529    5.93541911075243
H         7.11706811834334   -4.07830066840903    8.06374470626595
H         6.80719853662850   -5.34692698591716    6.88117784617823
H         8.21815906441773   -5.45940126237562    7.92610895082502
H         9.22529395184374   -3.27316254071172   11.04694140102522
H        10.46429567212843   -4.47314668094211   10.62853943849963
H        10.60857105491472   -3.52173405905899   12.10278951697827
H        12.81327407757001   -3.67790934098563    9.94280895837197
H        13.18560020824143   -1.95070024708979   10.05763694964998
H        12.84310195960306   -2.87579703903376   11.52024898249603
H        11.10081001681258   -1.11610530918682   12.06231389489951
H        11.39901730463656   -0.27883130803824   10.54253865707453
H         9.76181928950413   -0.81838396257333   10.94503010945961
H         6.96487644625569   -2.40225815680561    6.16460973473660
H         7.94187194898401   -2.61090378544221    4.70906399771698
H         6.64744799594432   -3.74928721353155    5.06755662992293
H        15.24798048539299    0.93846774201737    8.36561534693414
H        14.75521312523098   -0.45333976414578    7.95489407818643

