73
CSD_code = FAKMUA | q = 0 | S = 0 | Stoichiometry = C29H38ClN3NiO | MND = 5
Ni        0.29151236165146    1.39088674710580    6.03558938598717
Cl       -0.84812024609493    0.34949103946502    7.46040614777525
O         1.03117326465682    2.37263808910990    4.58830481664896
N        -0.06827928881984    3.08554277338371    7.04359232443933
N         2.30708227024784    1.75046624468574    7.13106909370326
N         1.26745642190297   -0.26749550385797    5.48979013803842
C        -1.94565236520427    3.49876944439432    5.59787737884722
C        -1.07471917575468    3.89823226127996    6.74172447453976
C        -1.29736991043207    5.06370371479755    7.46909310010322
C        -0.45620480200158    5.37017091755805    8.52214389492840
C         0.58498461519241    4.50651122052662    8.82368175543500
C         0.75301204968984    3.36216093157718    8.05859046058520
C         1.84108418567074    2.35522742369380    8.36578458235849
C         2.85448502954513    0.40885972380394    7.20314565334881
C         2.51896678044970   -0.36775455353463    5.94811904580905
C         3.43355465613335   -1.22530386139674    5.35649349775178
C         3.03256284668026   -1.99203394144931    4.27544428709163
C         1.71338581043657   -1.93412448421030    3.86707586105088
C         0.84202517190393   -1.06251107992315    4.51203471091307
C        -0.61777234673247   -1.03230469935974    4.19895114139815
C         3.18800169968432    2.64292128783181    6.38752949536598
C         3.36441041478529    2.21196256880379    4.95756632354021
C         4.61584189841298    1.87916288527502    4.48358961673081
C         4.82907091461162    1.56738629618748    3.14806759745286
C         3.74631914595485    1.71508627129946    2.28891591942357
C         2.47282891299293    2.04947192107114    2.71290112385045
C         2.22992149982398    2.20244728194868    4.10681430423022
C         6.21295428609519    1.14341623730303    2.68060328524347
C         7.20081171802512    2.29533645549328    2.91364550861128
C         6.25019143228826    0.77502074725164    1.19491970174193
C         6.65860716905829   -0.08815932481358    3.48233971776648
C         1.35360676861815    2.33356784164279    1.71760431198107
C         0.80900989783361    3.74197288504990    1.99684985229401
C         0.22887099803181    1.30965809408025    1.89457236682345
C         1.81572755426132    2.28985089477629    0.25759396753695
H        -2.99740522570529    3.55145639815868    5.87101424942534
H        -1.77146709837221    4.15274883904074    4.74435538780643
H        -1.69132458825707    2.46950501934659    5.30637777018844
H        -2.11944111772195    5.71085174372033    7.20650587211035
H        -0.60726840629739    6.26769772267649    9.10311585651726
H         1.25693599792406    4.71226643124654    9.64238493570195
H         1.38657684605042    1.57700194549660    8.98933841112816
H         2.65201081172161    2.83706654949048    8.93678502246420
H         3.94400454700909    0.41024684889700    7.36389749331774
H         2.37722778898976   -0.12281534502282    8.03434448305602
H         4.44229586057476   -1.28178807644614    5.73287377560377
H         3.73310873515648   -2.64580369979369    3.77760262245337
H         1.35248398831113   -2.55232888452206    3.06009683581022
H        -1.05324651284523   -0.10190389503892    4.58192250456146
H        -0.81032431161393   -1.12404307376044    3.13412386504844
H        -1.10304273532328   -1.86178356429985    4.71527123811991
H         2.72770909276634    3.63729220141723    6.39560102517437
H         4.17333691219244    2.71251173257321    6.88264639822919
H         5.44169175813693    1.87716740999276    5.18273942495700
H         3.90495015945179    1.56082715899494    1.23709670257219
H         7.25965259538162    2.55532779907198    3.96709010246706
H         8.19641606608275    2.01596310501198    2.57362914043172
H         6.88168543871483    3.17831778857423    2.36400953645095
H         7.24980839251925    0.43561157655110    0.92872764039365
H         5.55019817382228   -0.02818753121712    0.97563540444114
H         6.01237793743501    1.63401545633340    0.57216688040483
H         6.71074887398799    0.13149933921732    4.54516934189589
H         5.95329425002775   -0.90348418493516    3.33469926555398
H         7.64326982696798   -0.41709433783685    3.15494618282297
H         1.59274608680199    4.48393658191147    1.85499807961371
H        -0.01451224169981    3.97100732661089    1.32258235299882
H         0.45303945876698    3.80463704160284    3.02094263794859
H        -0.16119372680373    1.37309033589285    2.90493541990445
H        -0.57985108296293    1.50645497362004    1.19270725663858
H         0.61010114437876    0.30529430307193    1.71862327909618
H         2.14763333652763    1.29280445765884   -0.02443053219338
H         0.98101187903630    2.55793824901824   -0.38808136951006
H         2.62061944926323    2.99905950678767    0.07803066305268

