118
CSD_code = FAKPAI | q = 0 | S = 0 | Stoichiometry = C49H65O3Ta | MND = 5
Ta       -4.68802415561311    1.37890796890052   31.67256630648804
O        -6.12215887790594    2.07382267074955   30.77491029066211
C        -6.82594195108678    2.74663738713775   29.85481109944387
C        -8.16579472721580    2.38707263022777   29.61697266031621
C        -8.87519902597984    3.05226952867362   28.63220806709871
H        -9.90336405958923    2.78976884913193   28.44120500987664
C        -8.28098858345727    4.05019297177675   27.88087202872602
H        -8.84253840241951    4.55156266430038   27.10699541164180
C        -6.97047390748318    4.40797629531573   28.12691089901258
H        -6.51700712636354    5.18959328252436   27.53722763320528
C        -6.22529484803587    3.78133082362808   29.11593092806812
C        -4.79039892485734    4.18863767444559   29.36601223576526
H        -4.46681393052077    3.77260185003389   30.33121695655975
C        -4.63125083086703    5.70827371652164   29.45284201979912
H        -5.35381052478123    6.12962794142121   30.14805669999333
H        -4.77411689540271    6.17498260098128   28.48159563297934
H        -3.63042684678221    5.95756681681462   29.79996995480114
C        -3.88435188924932    3.61044543407438   28.27412621455481
H        -3.93319084130920    2.52316127419489   28.27101553518211
H        -2.85141532487798    3.91024639790945   28.44270292552022
H        -4.19364339086345    3.96986228515844   27.29447731731365
C        -8.77983391002204    1.31598388898561   30.48604665005197
H        -7.99073718633563    0.58953961243136   30.71989513701682
C        -9.93966957376339    0.58164330514432   29.81711945210066
H        -9.65985129318411    0.23793083773060   28.82360357796459
H       -10.81315950854787    1.22370942911072   29.73220143271148
H       -10.22167551830355   -0.28522976607267   30.41118463000209
C        -9.23255590512957    1.95510692919716   31.80447133395842
H        -9.73800241024545    1.22112958970813   32.42793164642010
H        -9.92085884851198    2.77565864582551   31.60964547437016
H        -8.37069243343008    2.33525821715856   32.34972662690350
O        -3.40746927687982    2.09586598070044   32.79019826885728
C        -3.00324573025585    2.79706628426501   33.85822571059201
C        -3.81534245781020    3.80966985616632   34.40885226846429
C        -3.38957278639863    4.45196386069561   35.56319595894524
H        -4.01417043617025    5.21562848056684   36.00125997115757
C        -2.18675613004942    4.13998632535301   36.16441020340871
H        -1.88006536229637    4.64965632759138   37.06547664090255
C        -1.36885467664836    3.18630357594340   35.58995669144474
H        -0.41352684445179    2.96555730246961   36.03969746996614
C        -1.75496509927750    2.51077769950383   34.44441512595254
C        -0.81402058910632    1.54433299222324   33.76642988685533
H        -1.40143911671819    0.91563257425910   33.08696806839023
C        -0.08575263611640    0.62594719637709   34.74557533993334
H        -0.79146627405071    0.17571304659976   35.43795508595721
H         0.66717210558840    1.16916762680855   35.31178889169561
H         0.41190411415664   -0.17233405170412   34.19931833475886
C         0.19391802620633    2.36571818465390   32.95373227156117
H         0.92588157412727    1.71643822598560   32.47988132498649
H         0.72208766229088    3.05937579554025   33.60565660464561
H        -0.31461373538436    2.94140095820467   32.18312851341258
C        -5.12227048233144    4.23412305368948   33.77638623441777
H        -5.25446015185395    3.69988348966361   32.82646964370741
C        -6.30509847718123    3.87066146175254   34.67686957559395
H        -6.34662620102690    2.79157793586338   34.81410315115944
H        -7.23738123550009    4.19759178258418   34.22067068627284
H        -6.21037706439486    4.34662599641116   35.64977763726323
C        -5.11753696470206    5.73235602624006   33.45719079749557
H        -6.01618426681355    5.99639368768639   32.90293946387823
H        -4.24896717194950    5.99337289926695   32.85613942261157
H        -5.09395696338162    6.32716961785128   34.36665278844863
O        -3.68571819115457    0.79235919662686   30.19945233394965
C        -3.26254179310343   -0.02443006872619   29.23465676170524
C        -4.18423029723413   -0.64499585533937   28.36523015366274
C        -3.71379288004220   -1.49709476972400   27.37923724766117
H        -4.41818651714175   -1.98561659780785   26.72347296195936
C        -2.36155155178725   -1.72919043372246   27.21461669210204
H        -2.01381699305578   -2.39049048944599   26.43508741481574
C        -1.45862580159039   -1.10424466138929   28.05224642666280
H        -0.40189838329935   -1.27810826193822   27.91539599600428
C        -1.88469408690501   -0.26044691399791   29.06531180555243
C        -0.88183459439548    0.41749545402435   29.96773178906020
H        -1.43617634183756    0.97458036010837   30.73209791725062
C         0.00258224618633   -0.61372374206702   30.66988319758084
H        -0.60528484514423   -1.27644269688654   31.28035606329227
H         0.72368584697359   -0.11818851221649   31.31498191843554
H         0.55214210391023   -1.21225128240297   29.94745122762144
C        -0.03540735737991    1.40959412732085   29.16551972696176
H        -0.67400503276087    2.13315571066108   28.66261401902074
H         0.55123078979274    0.89141622232288   28.41027961540082
H         0.64628306760056    1.94564277896757   29.82247249070707
C        -5.66757465328767   -0.40771438957073   28.52200476191609
H        -5.80577158547835    0.44655489248545   29.18808005105064
C        -6.34785063920107   -0.06727640811569   27.19451715367035
H        -5.81352357243823    0.73213669446844   26.68553439023739
H        -7.36574224741700    0.26991493164158   27.37922556033539
H        -6.38834009243092   -0.93114757889435   26.53566354605222
C        -6.31746119285424   -1.62891088060132   29.17860105570673
H        -5.89078689859777   -1.78287239751854   30.16965979724340
H        -6.14567267078188   -2.52139593258191   28.57998596929027
H        -7.39020657710053   -1.47734001626943   29.27681229809320
C        -5.88191556329977    0.76529520812264   33.35844906988849
C        -6.38285033208506   -0.43869710087696   33.23281524305552
C        -5.08092681411545   -0.52737803633919   32.53600355955031
C        -7.36853084504784   -1.42256353676769   33.75541738680776
C        -6.64528795678317   -2.62742182950674   34.36897286980575
H        -5.99599710530233   -3.09754050114579   33.63436480965309
H        -7.37321604352460   -3.35990169339399   34.71262695566092
H        -6.03493200341631   -2.32228679261956   35.21476053488109
C        -8.25012719993378   -1.91323170345285   32.60040948801188
H        -7.64049260569552   -2.38104745877358   31.83173280965131
H        -8.79287191592997   -1.08307179751538   32.15880631370894
H        -8.96916794151415   -2.64400045181355   32.96584687521906
C        -8.23187851652598   -0.73396996107304   34.81677007156468
H        -8.72206181117553    0.14000611011313   34.39642989412167
H        -7.61385124441760   -0.40680393027965   35.64904251710981
H        -8.98921113890291   -1.41913636971369   35.19182048223455
C        -3.95077525083539   -1.16625778882808   33.23121603685798
C        -3.73361991388674   -1.01704132414696   34.60412316171611
H        -4.38831945490749   -0.36461748882128   35.16709415581332
C        -2.70093286400389   -1.68385614176819   35.23305837635881
H        -2.55558626799544   -1.56471126123845   36.29817778758143
C        -1.85646116389624   -2.51010832367288   34.50869452344600
H        -1.05508470501470   -3.03805822328988   35.00425931147812
C        -2.04514475784085   -2.65088667315084   33.14342230448642
H        -1.38928061167137   -3.29529160859230   32.57401108410935
C        -3.07695980962738   -1.98511755850559   32.50912831692547
H        -3.22794712012992   -2.10216818868761   31.44269189574980

