50
CSD_code = FAKPIR | q = 0 | S = 0 | Stoichiometry = C13H20CoN7O9 | MND = 6
Co        9.54736259585979    0.85675887470234    6.85670820189773
O        10.70684407259384    1.15554791003190    8.34851448197504
O         8.48669661013589    0.72228730560279    5.32662447298741
O        11.38492844106717    4.50775228614971    2.95895969285598
O         8.84626747041851   -0.85017656631762    8.63541204834940
O         8.73602390277774   -1.60451645012618    6.62227412136437
O        11.11923788616890    0.45859346654400    4.74607678606548
O        11.69090589850985   -0.66787654491107    6.48553860565645
O         8.32606703975513    2.36306691328694    8.76411756189239
O         7.00508020929802    1.82612425887347    7.16630217289737
N        10.20009842334110    2.62185066441292    6.36314295697499
N        10.95838525244256    3.19044567354452    7.33323316229589
N        11.09236929067882    3.07920673057043   10.70021787703203
N         7.68899487188768    1.78121937400799    2.08672313183182
N         8.97400581182479   -0.73461690024775    7.43109271961089
N        10.94499743070284    0.10400164599052    5.90865846305170
N         8.09554695642838    1.74089719207882    7.71110025405799
C        11.13679644778272    2.34006637655091    8.31628935223542
C        10.04781336289386    3.23961578839829    5.23611598166963
H        10.56214767509524    4.18538228340622    5.09855581813377
C         9.26002704614834    2.71065637911668    4.17264807909675
C         8.50886957380833    1.48018452064031    4.31868825711801
C         7.70270160874459    1.07207495606499    3.21478509173120
C         6.88719415241972   -0.15863025338046    3.34662374965672
H         6.41421505694177   -0.44047290447852    2.40911094885759
H         6.12845531761212   -0.00893287827922    4.11532038378543
H         7.52073710290564   -0.96702638969687    3.71207674620987
C         8.42545442848252    2.89920992227946    1.91151195520288
H         8.36161734361575    3.38138129824438    0.95025687983087
C         9.20448345859863    3.38677375137013    2.93312172618961
C        10.01420091192885    4.63541985539198    2.66936820982815
H         9.87916071080122    4.92746007883190    1.61672651734650
H         9.65303309126075    5.45892681617980    3.29478757609655
C        11.94745317375636    2.83139768021002    9.50799445161638
H        12.67941335302781    2.06031927629799    9.75733629241882
H        12.45350447645286    3.75582298900246    9.22801930947744
C        10.37748621013944    1.85010745004853   11.09479721441332
H        11.08050848643111    1.03328213037035   11.23910588677434
H         9.67385196184143    1.55877414932193   10.31241742851151
H         9.82612423387971    2.02823560973707   12.01523644276024
C        10.10721233896435    4.13011679708196   10.39169259343444
H        10.60840951002738    5.01458291430318   10.00500096849244
H         9.54938694215607    4.38718430620779   11.28961906805394
H         9.40575475740076    3.75621273174335    9.64340540236702
C        11.95526655195184    3.52018758455275   11.80690055795472
H        12.68302371562584    2.74662815182678   12.04684361655100
H        11.35301144920552    3.71953840777721   12.69204606849711
H        12.48607439078922    4.43012429753884   11.53063329691475
H         7.11050975112257    1.44930052534983    1.32218230834570
H        11.69788924429669    3.65012956379841    2.64968510963053

