58
CSD_code = FAKWOE | q = 0 | S = 0 | Stoichiometry = C25H27Cl2N2PPd | MND = 4
Pd        4.26934023955200   -0.34641824828457    2.37201393828488
Cl        6.37186579377095   -0.98167487617368    3.03614343757655
Cl        4.46828008238287   -1.20680517489677    0.28458584285570
P         4.24777065136457    0.68956711309263    4.34074564295681
N         2.04620134552401    1.21812054637606    1.21149323251261
N         0.68452673431665    1.29234219581190    1.14101261407352
C         2.42221330437634    0.13697635736629    1.89212826565089
C         0.17960971038204    0.21474094638273    1.79396333998983
C         1.23862849745734   -0.52953777804345    2.27005018115729
C         2.91380773979624    2.14548337911260    0.54639770219214
C         0.00224580696697    2.37932265800404    0.50806582841101
C        -1.28082118780602   -0.02026586930202    1.92373736711559
C         1.23837409326680   -1.82485247856666    3.01196914851007
C         2.83081080918050    1.82629506655029    4.51860109079548
C         2.88743544777257    3.12631227767902    4.02535751913750
C         1.74146221990485    3.89876563579605    3.95846262561899
C         0.52543933314482    3.37965312707278    4.37257804760831
C         0.46157091690146    2.08651286728910    4.86763231076219
C         1.60460697354459    1.31373628370087    4.93522598395759
C         5.67948689087491    1.80057076236352    4.46390959261973
C         6.18872928234023    2.26160124403733    3.25032202746913
C         7.26913912962286    3.12153837023484    3.23253158861602
C         7.85314357383808    3.51907266674086    4.42610357505316
C         7.35975974476971    3.04971135791542    5.63128184245091
C         6.27255391096186    2.19211548029430    5.65599292310035
C         4.16956237693975   -0.30583595504294    5.85011616188644
C         3.87400134802583    0.24096426425034    7.09636453532389
C         3.81826656619782   -0.57980536041216    8.20782550964254
C         4.04405993242871   -1.94191550216776    8.08022485032136
C         4.31232302578565   -2.49128614394489    6.83676615983598
C         4.37135846832231   -1.67645731036993    5.72051452478570
H         2.91411081024848    3.11807087939841    1.04554587640963
H         2.62425347394781    2.26601306653333   -0.49847901573987
H         3.92219166073614    1.70683675352713    0.57807353074432
H         0.17317155005681    2.37517829636341   -0.57178192488410
H         0.34458544563567    3.33181621310922    0.91920173977160
H        -1.06454057215171    2.28267009684876    0.69173385226279
H        -1.75451756735587   -0.09477334935084    0.94529174022359
H        -1.75591981326851    0.78849329506209    2.47952265870618
H        -1.44611480101380   -0.95022381952542    2.45898479806544
H         2.28480595127915   -2.13447748839305    3.15260311370998
H         0.72274813112507   -2.59840379460932    2.44480163199714
H         0.75890224661930   -1.73264937482951    3.98616364272080
H         3.83667569821064    3.53118219621926    3.69949241606144
H         1.79578739804314    4.91077140099990    3.58160169418266
H        -0.36888064384882    3.98306183429664    4.31445758875699
H        -0.48363842304785    1.68039815998966    5.19813702529958
H         1.55956724657237    0.30233721129674    5.31507669142245
H         5.74931036251930    1.89683785633599    2.31577058910533
H         7.66876755587487    3.47053373336936    2.29171013107865
H         8.70514010547956    4.18274750601202    4.41403282121208
H         7.82859120583105    3.34554661810054    6.55857932249779
H         5.90410338943776    1.81238707765344    6.59764449254316
H         3.67234696798562    1.30025393386208    7.18774385463411
H         3.59596242693619   -0.15735005117458    9.17726583750689
H         4.00296212760446   -2.57617590923283    8.95361838995329
H         4.47543427299058   -3.55426938744949    6.73896860061345
H         4.58734103160525   -2.08656085726791    4.73582149081487

