71
CSD_code = FAKXEX | q = 0 | S = 0 | Stoichiometry = C36H22F4N2O6Zn | MND = 4
Zn        4.87131857019038    4.33381161092949   13.33575006605489
O         5.59717462106135    4.90783117431979   11.48586149554498
O         3.60430474781012    5.40572838669501   12.21314358415428
C         4.49462268989662    5.51800342578707   11.34149966914724
C         4.25430510024404    6.33610073688111   10.13505217784417
C         5.21986091024327    6.41895628783110    9.11618395002892
O         6.38780623150135    5.77219035887266    9.18684358554452
C         4.93893477049598    7.20030987255394    7.99241159536854
C         3.75030644186068    7.88569314194368    7.88931720497700
C         2.78838877996944    7.81656383300238    8.90226571245027
C         3.05742052961896    7.03387476507826   10.01514037372920
C         1.51196969563880    8.53944018008922    8.80149070038569
C         1.42571989332173    9.84211825877853    8.31005198749905
C         0.22931617140463   10.52856365610808    8.22004960102745
C        -0.92122289865630    9.88566346033532    8.63569075617850
C        -0.89189637788632    8.59582306100014    9.13420976583333
C         0.32125273964653    7.93973534625281    9.21279831893307
H         0.35450941283669    6.92949420908147    9.58945892299827
F        -2.09793886902709   10.53608729850438    8.55045619738143
F         2.54046222931687   10.49352021164682    7.92185586289775
O         5.53351208903754    5.80473614747984   14.56661261480634
O         4.04193887520791    4.34528958847079   15.19081816747799
C         4.68432348337021    5.39078089467263   15.41792544622415
C         4.48681865136525    6.14165503284429   16.67572413616137
C         5.24444942137319    7.29332321498185   16.95327301592140
O         6.16788777738930    7.76509624540833   16.11181413477510
C         5.02304312434472    7.96457020295911   18.15961988075801
C         4.08206204759932    7.51032110306070   19.05331119017512
C         3.31549649012138    6.37252479476295   18.77958705339538
C         3.53004097192871    5.70226463330605   17.58518387491536
C         2.31765175848686    5.90675427506739   19.75415331483375
C         1.04851417095194    5.47201962313243   19.37113637632414
C         0.10275045863840    5.03961685296989   20.28199625933673
C         0.44229915680654    5.04016817558694   21.62167791263960
C         1.68558113679549    5.46299566930777   22.05531047694098
C         2.60631079858950    5.89239858909729   21.11866994112523
F        -0.46499194916301    4.61747141052634   22.52387248892263
F         0.69193831230218    5.48973365809318   18.07306862004918
N         4.05231287073107    2.47814710816182   12.84724462053807
N         6.49929120208722    3.04947061644335   13.65637435720121
C         2.77256290215658    2.28554767242331   12.59091402707035
C         2.21021633866283    1.01864582860920   12.53104720201344
C         3.02797750512701   -0.07503264570855   12.76390552634061
C         4.37030277232137    0.13312803765888   13.03632047497068
C         4.85711684528162    1.43830315342775   13.06622077281180
C         6.26274015946606    1.77354426784887   13.35017621113419
C         7.29835048956954    0.84266008922629   13.29669774269114
C         8.58910523801009    1.25798286071553   13.58011334043006
C         8.81242478186914    2.58548690941487   13.90726985586820
C         7.72739204682934    3.44960931540906   13.92581164252863
H         6.40216164616151    5.30753205150322   10.06205623350723
H         5.68035804842029    7.25426950204439    7.21093660886318
H         3.55781567626641    8.47450481135565    7.00573595045306
H         2.35562182034889    6.96757041085703   10.83245676321046
H         0.20130400265974   11.53740138938955    7.84188845424472
H        -1.80726578757197    8.12257270872664    9.45106169209211
H         6.14849592034974    7.18470650873669   15.30869590395398
H         5.60446062910124    8.85002662445806   18.36330293939613
H         3.91290335452837    8.05650156437207   19.96972409539763
H         2.97193189527653    4.81467668720036   17.33097245175085
H        -0.87164960420224    4.71808554494120   19.95212598551937
H         1.91955236878074    5.45068258701794   23.10761766757686
H         3.58418274588573    6.21101413090510   21.44497666333492
H         2.18963456387377    3.18112801037360   12.43155098173431
H         1.16074729136126    0.89613083811453   12.31744360467901
H         2.62817634547805   -1.07788026201315   12.73996830414531
H         5.01675117614808   -0.70482433922841   13.24085410731529
H         7.10844879059623   -0.18185672830825   13.02074354989341
H         9.40718399234504    0.55427144421080   13.54085367596397
H         9.80231913657237    2.94661828330789   14.13462816968679
H         7.83663067085882    4.49824563100231   14.16192399094000

