29
CSD_code = FAKZEW | q = 0 | S = 0 | Stoichiometry = C10H15Cl2OV | MND = 8
V         6.94828141884442    6.47475973421321    2.30132725846660
Cl        7.91446896403966    4.66804763734266    2.74464958006244
Cl        7.97753959620156    7.79432464460401    3.56284286307141
O         7.53442917116895    6.82168916173308    0.94216687311274
C         5.08217752190211    5.48676603810973    3.49899635330817
C         5.08651387028938    4.31241190864297    4.41980901322326
C         5.10869035722528    6.84594737899943    3.83607780603007
C         5.13986255335564    7.45618956732152    5.19725262254705
C         5.07657827864705    7.60338724458430    2.62802964491402
C         4.95565267126162    9.09028925250076    2.53359415576605
C         4.95652279931505    6.69631758794418    1.53631038542546
C         4.63146911991696    7.07256558542638    0.12612559670070
C         5.03124219606692    5.38111750684803    2.07738064489408
C         4.86932890174830    4.10933395645383    1.30762525148874
H         5.09006984922026    4.62443872565623    5.46135170771652
H         5.97076441735376    3.69606367767277    4.24257362395145
H         4.20423771279567    3.69545296918634    4.24267291239352
H         5.13155731530376    6.69614578270246    5.97474612950412
H         4.27427937092710    8.10643830230593    5.33385126446989
H         6.04003279814736    8.06283256362889    5.31896880665674
H         5.39895145094643    9.45009782815657    1.60573833959938
H         5.45925133334536    9.57312627929339    3.36899465909596
H         3.90163192550480    9.37942652679685    2.54733276081830
H         4.75647259502886    6.22230654815704   -0.54068453471127
H         5.28648249820855    7.87523130564417   -0.21397686255585
H         3.59760028058426    7.41892360906317    0.06389605790424
H         5.31263347804874    3.27432505364925    1.84683116902522
H         5.35471709179908    4.18635874173920    0.33487233814727
H         3.80776046280313    3.90058488162365    1.15104357897376

