51
CSD_code = FALFOP | q = 0 | S = 0 | Stoichiometry = C14H30N2NiP2S2 | MND = 4
Ni        0.00022807911990    0.00019385097004    0.00000565922961
P         0.55159769071138   -2.13483622678148   -0.09037982141652
S         0.69241952476970   -0.54990517379418    4.43404812690200
N         0.34801089311664   -0.04339632608885    1.74615437169432
C         0.03493087718456   -3.28156524221856    1.25019459180579
H         0.50555012094017   -4.25441842034435    1.08900520047578
H         0.41403625232315   -2.86759517435436    2.18760232931775
C        -1.48294016486105   -3.39524625076657    1.31425288927036
H        -1.78486367626604   -4.03065370633817    2.14398717132524
H        -1.88643213910317   -3.81348003111348    0.39385807994063
H        -1.91864737115382   -2.40746868828555    1.46292410986254
C         2.38853698519231   -2.13876968927823    0.04866240437127
H         2.63048930275405   -2.05915832669872    1.11182015781193
H         2.80399689068375   -3.07306749359468   -0.33636704422986
C         2.94314533775634   -0.93248032306870   -0.70310566014223
H         4.01142716753372   -0.81662527322567   -0.53206671295797
H         2.43304784687036   -0.02283946406026   -0.35025288496532
H         2.77040699778435   -1.02632769697034   -1.77416676791516
C         0.20430184194312   -3.03873711464690   -1.66179554223707
H        -0.85781514108783   -2.90089658949821   -1.88197488788965
H         0.75678299898604   -2.50406767393352   -2.43964803906629
C         0.56070215011839   -4.51903504196593   -1.67549323028701
H         0.43292668913779   -4.91157467170994   -2.68242322308349
H        -0.08430267106859   -5.08841722978089   -1.01098020214223
H         1.59478533742807   -4.68442515734420   -1.38066966946313
C         0.48503829164077   -0.28029993477667    2.89424761626303
P        -0.55170921082013    2.13504202857996    0.09038254791520
S        -0.69264025381357    0.54973571769978   -4.43396575906431
N        -0.34780826930623    0.04329953053799   -1.74608083773424
C        -0.03492236000339    3.28159456099188   -1.25026745452296
H        -0.50552019199994    4.25444840666496   -1.08907634017179
H        -0.41406323323185    2.86759663346108   -2.18764798060941
C         1.48294690067705    3.39523657440250   -1.31433677230597
H         1.78488249516243    4.03061154321218   -2.14408686931162
H         1.88645353061208    3.81347680049056   -0.39395223430563
H         1.91862186869473    2.40744797739246   -1.46299030832894
C        -2.38864049692239    2.13879142974219   -0.04864268571662
H        -2.63055333072236    2.05921703244733   -1.11181268859740
H        -2.80410117098615    3.07307327844092    0.33641104233677
C        -2.94319873878113    0.93245531521455    0.70310490743202
H        -4.01147370551053    0.81655960784219    0.53205699174671
H        -2.43308399402079    0.02281652955701    0.35021199392769
H        -2.77046111684084    1.02628155209119    1.77417791054402
C        -0.20427978691015    3.03877972834521    1.66185201734046
H         0.85784234280053    2.90091000472864    1.88200404143911
H        -0.75676549028085    2.50409813228274    2.43969521839878
C        -0.56065867990677    4.51907531137810    1.67552540198403
H        -0.43285470726723    4.91157316012107    2.68246602781169
H         0.08435293638893    5.08845971109188    1.01101769684139
H        -1.59474455783034    4.68450146120647    1.38072746481146
C        -0.48498089168694    0.28001104170902   -2.89421235441422

