41
CSD_code = FALGEE | q = 0 | S = 0 | Stoichiometry = C21H15CoN2O2 | MND = 7
Co        1.82232864284544    0.42891376687872    2.15045723663934
O         1.79079502245745   -4.28394925649570    0.15058498624400
O        -0.47659461745519   -1.53341509128332    6.08898125856712
N         1.61562595360361   -2.39645987716080    1.35997433084366
N         0.45895806768108   -0.03115997576627    4.71004363215447
C         1.69811234273372   -1.26331611025670    1.68056503884082
C         1.42163427702450   -3.74254179514390    1.16464781596897
C         0.73976815138302   -4.41349989584991    2.29109641248102
C         0.50332684051005   -5.78436460112166    2.17049246122452
C        -0.12927990735194   -6.47020049178366    3.18771058554302
C        -0.53147790696785   -5.79755734555747    4.33219399038394
C        -0.29986112712607   -4.43666311526007    4.45838008361917
C         0.33299852426785   -3.74372756277695    3.44395133004845
C         1.00847792905456    0.12142856824930    3.67134450157142
C        -0.17737349032323   -0.37942465954828    5.86885260353336
C        -0.44382205732841    0.75524710497016    6.77349999261303
C        -0.10214038625506    2.06706122619016    6.44711660737480
C        -0.37825528650030    3.08995680346080    7.33396240758260
C        -0.99304151507358    2.81638182982450    8.54626481665825
C        -1.33518753961639    1.51373386575121    8.87536709682567
C        -1.06312250306625    0.48618236744003    7.99423114931556
C         3.18818053572392    1.12115353846441    0.73590352799755
C         1.88307711252853    1.56189814196873    0.36332490436943
C         1.38623923493050    2.36614842429094    1.39950985742969
C         2.37540891390809    2.40514313614544    2.42573565132417
C         3.51583164722975    1.69230300115457    1.98247993711439
H         0.82474235970162   -6.28760260305948    1.27088948200517
H        -0.30996620543167   -7.53040939459982    3.09024743385155
H        -1.02574278907061   -6.33590251013029    5.12719926352236
H        -0.60772520770998   -3.90288312907571    5.34386194148695
H         0.50822181707176   -2.68389284374850    3.55378917400608
H         0.37470092160715    2.28057571036500    5.50182673147883
H        -0.11447894150174    4.10618159675044    7.08116087352051
H        -1.20589073489102    3.62056055348357    9.23486927814478
H        -1.81408815106042    1.30257992722071    9.81965595464728
H        -1.32028124890730   -0.53594124253842    8.22832787944232
H         3.86763450543386    0.58913825599394    0.08786597180236
H         1.42461807561739    1.40409617981691   -0.60012641158961
H         0.47550772711745    2.94395665754584    1.38324678140733
H         2.33908370371215    3.04454032384149    3.29563623314811
H         4.47995730950379    1.66943052134483    2.46467719685547

