83
CSD_code = FALJEH | q = 0 | S = 0 | Stoichiometry = C34H40N2NiO6 | MND = 4
Ni        6.74654249814052    6.01417171379601   -0.00004944977961
N         5.39377046000385    4.92292372056038    0.90875730583190
O         6.63710819103031    7.25558208310686    1.33623022233870
O         3.03546798190037    5.42082055967109   -0.40966139031952
O         3.06007467223761    3.31929101492215   -1.34120878506391
C         5.13082477895891    6.28928109501503    2.91100449864907
C         6.04423993821558    7.27910884312994    2.47015088353610
C         6.31767273340513    8.39420756912905    3.32652667415663
C         5.72094423684087    8.51304143901338    4.53433841571983
C         4.20630969199175    7.68105821213060    6.27067100892141
C         3.32955961177793    6.74255745915960    6.74682322974973
C         3.03451890296642    5.62589441649659    5.96267603496775
C         3.60766303970656    5.46380805637242    4.72637092757192
C         4.50468416008043    6.41162379754505    4.19978692984082
C         4.80475756130953    7.53746111636179    5.00829606008465
C         4.82728242551805    5.21535973541100    2.03858771898482
C         4.78210197344397    3.83361096896597    0.17800144482142
C         3.84386317635081    4.38562676236324   -0.92190883182070
C         3.43690235733257    6.73378984948362   -0.75676617022187
C         2.71398575394540    7.71297411838186    0.15217954088095
C         2.25100904919336    3.60197364110148   -2.47301930054946
C         1.52548886900169    2.32878508226093   -2.87234905888858
H         7.01910302561033    9.13096918549800    2.96320452431255
H         5.93765292878986    9.36120560735407    5.16902568147924
H         4.45405327629968    8.55087457459110    6.86267834781522
H         2.87149646593365    6.85769081473471    7.71769427093257
H         2.34824663251007    4.87941341038396    6.33561300114280
H         3.35434147748477    4.57983188846322    4.16260764946213
H         4.01284508749582    4.56495421633232    2.35100502153824
H         5.54321061872365    3.21606195377477   -0.29825964696210
H         4.16414486497491    3.21258771531630    0.83565179465286
H         4.44153588773420    4.78011831468060   -1.76531535936023
H         4.53582986303783    6.84706179718090   -0.63595044532680
H         3.19205994817298    6.92971168166030   -1.81305682928934
H         1.63918348861262    7.58948083322534    0.04947534572985
H         2.98673952992572    8.73081140390574   -0.11169730236736
H         2.98780746233878    7.52777424868317    1.18754747874049
H         1.53238297168472    4.39344760010714   -2.22405077085232
H         2.89029925283561    3.95896071765418   -3.29635004029274
H         0.89698834343533    2.51748347129050   -3.73817611950481
H         0.90777013518240    1.98351593422304   -2.04860276998873
H         2.24559405025090    1.55206958122404   -3.11389519049998
N         8.09942017285063    7.10534599653302   -0.90879848955114
O         6.85590012881035    4.77281701517268   -1.33638779103626
C         8.66581712748628    6.81299330319287   -2.03868964879291
C         8.71128846902996    8.19444531893239   -0.17789904408502
C         7.44879091517669    4.74927719164350   -2.47029512451535
C         8.36216843716814    5.73915159050343   -2.91117081952141
H         9.48048011338951    7.46319495318717   -2.35093368926021
C         9.64933829226078    7.64219813853348    0.92206038142193
H         7.95025768598909    8.81211970089315    0.29832121234860
H         9.32942452371165    8.81538608676355   -0.83545959127574
C         7.17518079068100    3.63432217742173   -3.32677524653242
C         8.98820178624606    5.61688216679520   -4.20001832612474
O        10.45736383453630    6.60664837263565    0.40994797933535
O        10.43351433785007    8.70828834725019    1.34126614513390
H         9.05150908035097    7.24801907172493    1.76550137520809
C         7.77183363587775    3.51554643206691   -4.53463431893261
H         6.47380719203586    2.89752135424466   -2.96340393151978
C         9.88524113067151    6.56468288171294   -4.72660549562723
C         8.68807522325399    4.49107077449310   -5.00855615001974
C        10.05542689210786    5.29387294375030    0.75719006432989
C        11.24251929992628    8.42541553857600    2.47307254571202
H         7.55526966448385    2.66726083320558   -5.16922909646948
C        10.45836197393599    6.40259835047312   -5.96291339599676
H        10.13849097346932    7.44872518423624   -4.16290831035745
C         9.28654287941217    4.34745394376302   -6.27092936055963
C        10.77810504454061    4.31432518638213   -0.15155599817406
H         8.95645947860703    5.18097605784406    0.63628141995211
H        10.30007614759205    5.09801901055991    1.81353606251388
C        11.96859362592788    9.69834977970895    2.87220491739088
H        11.96080291049418    7.63361360827229    2.22416296877417
H        10.60312391263603    8.06879425162509    3.29647887204381
C        10.16327496633980    5.28596985462915   -6.74708725496956
H        11.14438931046149    7.14925831851378   -6.33598385779722
H         9.03870453410771    3.47772802702317   -6.86302014205710
H        11.85294796954716    4.43735729234247   -0.04869739937926
H        10.50486650049334    3.29663245037054    0.11236431496285
H        10.50452212801538    4.49954625578314   -1.18698297464721
H        12.59708226749944    9.50949960718116    3.73800833603181
H        12.58638874587203   10.04326293350850    2.04836756809589
H        11.24882410837856   10.47538933286306    3.11370857790640
H        10.62105641437906    5.17106416100622   -7.71812383473088

