83
CSD_code = FALJIL | q = 0 | S = 0 | Stoichiometry = C34H40N2NiO6 | MND = 4
Ni       -0.00000011241953    5.65807114045832    0.00003963752559
N         1.10067017111325    4.01486504797111    0.07277663090973
O         0.19585747287031    5.90567012587408    1.79418209713097
O         3.73410587429373    3.71033326369148   -1.09688968026045
O         2.73512878818410    3.67748380867276   -3.20135615142474
C         2.22409203228532    3.41380702031898    3.49989491808156
C         1.57717571937618    4.06679230450097    2.45836349523910
C         0.78553482341252    5.23769419449886    2.72485104675569
C         0.66978369464718    5.65728401200368    4.05361391735739
C         1.19328747694621    5.42278190819226    6.44371842952240
C         1.83491602138477    4.76196213428461    7.44783736321569
C         2.63351972960036    3.63382440825022    7.17079151460840
C         2.77016324635832    3.18995485143186    5.88975478804379
C         2.11817706875251    3.84907049755777    4.82020535736216
C         1.31136394107582    4.99515660722888    5.09782561452612
C         1.68355526123173    3.56173944611242    1.13124815441983
C         1.40997070120961    3.31110817666495   -1.15540740002884
C         2.59582437945289    4.01235574157754   -1.85301345361178
C         4.84773714862080    4.54975406818945   -1.35392823446210
C         5.98315116541877    4.13291482856091   -0.43494639180404
C         2.97391913464865    2.30293839901056   -3.47640663013180
C         3.51139649599937    2.18906543024572   -4.89409412850343
H         2.82186168886694    2.53835523014532    3.28244117543092
H         0.05250516294472    6.51938511209083    4.25978679203845
H         0.58031379166735    6.28711119167358    6.65507497691829
H         1.73751399142998    5.09706200525800    8.47056740599123
H         3.13265626871199    3.12745586578546    7.98388989254955
H         3.37904688434678    2.32485117306727    5.66687365186074
H         2.32341661345835    2.68301034468971    1.02610925527910
H         1.69822407341115    2.27592687718125   -0.94256760087114
H         0.55370680363634    3.34257030003020   -1.82943506494253
H         2.40876863678145    5.10029995524881   -1.86438380978666
H         5.14521038871697    4.45967142666070   -2.40721648619364
H         4.56150873760224    5.59520921414055   -1.16689985722849
H         6.84976133401590    4.76423157975418   -0.60937573339363
H         6.25323983204786    3.09699728319521   -0.62124807649062
H         5.67254265474690    4.22975632375391    0.60187532355282
H         3.69881697388312    1.90383591987052   -2.75596318653445
H         2.03668216292968    1.73641007427097   -3.38275899356615
H         4.44633970625054    2.73502568279079   -4.98612727291432
H         2.79605863608535    2.61328074866342   -5.59287948557642
H         3.68058788476434    1.14511003021234   -5.14337217129091
N        -1.10072806707456    7.30124047906237   -0.07270310729604
O        -0.19580233986873    5.41049161918077   -1.79410905474343
C        -1.68356802660374    7.75438225126993   -1.13119192904666
C        -1.41013088359054    8.00493075128666    1.15549198409951
C        -0.78542681006313    6.07849228651478   -2.72479428920417
C        -1.57709128770568    7.24938084496337   -2.45831927137748
H        -2.32346575901755    8.63308560467049   -1.02606010533368
C        -2.59595150711976    7.30354690069069    1.85301594600323
H        -1.69846192764067    9.04009719000540    0.94268221816790
H        -0.55389065416071    7.97350968997028    1.82955119025977
C        -0.66958382173158    5.65894576913524   -4.05356288291237
C        -2.22394721222260    7.90239343736212   -3.49987084007876
O        -3.73422349340764    7.60550961095086    1.09685521469215
O        -2.73534759247810    7.63833927048470    3.20136638641938
H        -2.40880045372869    6.21561660668613    1.86434077907354
C        -1.31110361125810    6.32110180828251   -5.09779408647950
H        -0.05227803364437    4.79686036386725   -4.25972105207162
C        -2.11794980960432    7.46716828384960   -4.82018750227232
H        -2.82174397769031    8.77782919946594   -3.28242674781904
C        -4.84778714031308    6.76596622499216    1.35378147665777
C        -2.97426232885097    9.01285189453665    3.47648054416527
C        -1.19293835162615    5.89352076222938   -6.44369339478541
C        -2.76989151914599    8.12629962181307   -5.88975491565854
C        -5.98317671409124    7.18273944624262    0.43474389024462
H        -5.14533916970750    6.85596145180250    2.40705476417801
H        -4.56144341571996    5.72054919705700    1.16671736202025
C        -3.51184378252633    9.12659843579266    4.89414194071010
H        -3.69914130606234    9.41193974129165    2.75601031246212
H        -2.03706165483300    9.57945870714997    3.38292878322816
C        -1.83451517827355    6.55436274354467   -7.44783103336520
H        -0.57995057342009    5.02919861777919   -6.65503744029251
C        -2.63316586566190    7.68247023365219   -7.17079691157420
H        -3.37878151348554    8.99140207224415   -5.66688692903290
H        -6.84972922433306    6.55131554674186    0.60907071471474
H        -6.25339197143654    8.21861549030366    0.62109136672577
H        -5.67248100364065    7.08600037243936   -0.60206116143554
H        -4.44676355495246    8.58057859607030    4.98607102768308
H        -2.79653169662613    8.70237293244573    5.59294693039635
H        -3.68111245488924   10.17052600568612    5.14348635672792
H        -1.73704906340174    6.21929439014343   -8.47056547135014
H        -3.13223970913520    8.18887179453726   -7.98391269181068

