46
CSD_code = FALKOU | q = 0 | S = 0 | Stoichiometry = C18H17ClN4NiO5 | MND = 4
Ni        2.77695668548362    0.77323925612135    1.71356275228197
Cl       -1.51640781614832    1.90487673327709   -3.91883500025667
O         3.89739152352775   -0.52811328038228    2.43440275821899
O         1.67523256061923    2.00270546217174    0.96377176628650
O         7.07662830456197   -6.99682968994800    2.37572981384987
O         7.70412237601754   -5.96817501461236    4.15448693686031
O         4.33383351313568    3.11705736341686    5.58269657894131
N         3.18996430683598   -1.61448711708296    0.57428799556038
N         2.50274122597924   -0.46035184676978    0.39321976378629
N         7.07321221929448   -6.03836264645661    3.11986698143363
N         3.15030038610208    2.05199024376546    3.20420387739846
H         2.55592680659082    2.86230854547802    2.99326712331212
C         4.71888857019662   -2.73431840499741    2.04045327080837
C         5.47567648258403   -2.70060664605578    3.21277684202976
H         5.44347854601659   -1.81554297096358    3.82883876537419
C         6.24941757856077   -3.78317504502235    3.57149327655216
H         6.84312815610365   -3.78098513559807    4.47290405384649
C         6.26560727995795   -4.90599607341450    2.75051568437293
C         5.51540899785900   -4.95368859339992    1.57859040085572
H         5.55335289023716   -5.84251953665816    0.96742275172119
C         4.74334192326045   -3.86822373525529    1.22597991460355
H         4.15105517173405   -3.87289976606040    0.32589496267157
C         3.90135380459963   -1.57024572110879    1.67331974032230
C         1.74802845587802   -0.35517278310483   -0.66372406729335
H         1.71992365666109   -1.20923606292367   -1.33508529158610
C         0.97440862258438    0.78988024228654   -0.98487265693408
C         0.98400210184832    1.93311149215646   -0.12855775018043
C         0.19092782706352    3.04109002573025   -0.50756319805861
H         0.19595473603897    3.90648615639944    0.13728842127750
C        -0.56190359416361    3.02912342569469   -1.65124493539496
H        -1.15975463530624    3.88526075822369   -1.92218107508238
C        -0.55788745246621    1.90020021055753   -2.47681235954035
C         0.19329714428684    0.80062045935620   -2.15417003904988
H         0.19298046051544   -0.06784015915303   -2.79446872590028
C         2.77795264763706    1.56733752553501    4.54262447991848
H         3.40936857082254    0.70715222878420    4.77894725541703
H         1.73139110562423    1.25422240551916    4.54025043103044
C         2.99664303118808    2.67194532087222    5.58267098096015
H         2.31959467700161    3.51739305894077    5.37484301087807
H         2.80057119628006    2.29999743261747    6.58931499286966
C         4.71038368873068    3.60148710518979    4.31400542319569
H         5.75522913743480    3.90278377524312    4.40184543813482
H         4.10330867306212    4.48481014588265    4.05397096959730
C         4.54361482336288    2.52483053662746    3.23559181873095
H         4.81512288229573    2.92754508830834    2.25685926819501
H         5.18633075050896    1.67071523081517    3.46441659798667

