50
CSD_code = FALRUI | q = 0 | S = 0 | Stoichiometry = C23H22N2O2Pt | MND = 4
Pt        2.74611359821100    8.90342564709418    4.19341305304997
O         3.93598814578108    8.44625667022654    2.65626881793281
C         4.78956651205083    9.26514465958270    2.15220721687594
C         5.76360261815486    8.69951605794475    1.28413075039866
H         5.69878749656193    7.63280760858412    1.13212217239550
C         6.74059491952459    9.44393626921448    0.69011900682700
H         7.46871492052675    8.97260046176979    0.04602001426728
C         6.80797954443117   10.81898539294230    0.93095760329504
H         7.59899893446897   11.40969351177193    0.49470274659539
C         5.86492834326107   11.41078444793860    1.72720097676160
H         5.95838255653487   12.46836024324212    1.91968398717837
C         4.82210864431195   10.68711243755345    2.34540923002127
C         3.86065499488637   11.40315426194813    3.14756917752107
C         3.72220419953380   12.89063612197591    2.93590496114091
H         4.33166367599530   13.44342215408288    3.65141627449504
H         2.68501743087026   13.19316470434337    3.06212211018426
H         4.02754527034386   13.16544065953356    1.93208949278024
N         3.11650908055709   10.81366858164776    4.03922819837179
C         2.23954296205527   11.57488991083142    4.91552784246420
H         1.31081969344506   11.82149632827908    4.38304824832305
H         2.71608561999376   12.50649229658383    5.23691153039304
C         1.88797417262998   10.74266385326523    6.16914503930201
C         3.10761624703245   10.69135493044137    7.10117076156746
H         2.89771591486102   10.05344194109406    7.95659714401695
H         3.35902075870828   11.68731853643978    7.45826390124917
H         3.96053561713576   10.27623854241898    6.56262458757774
C         0.70118203494239   11.40439873703390    6.87931714957975
H         0.87479687171516   12.47564036006761    6.94741058450223
H         0.57858398811495   11.02581466284361    7.89048550227430
H        -0.21832039358272   11.23761963335635    6.32215158077252
N         1.62650564585002    9.37815927338378    5.70886473023306
C         0.86773928271665    8.56933734549313    6.38544159874982
H         0.37209188246752    8.97532450809523    7.25972525631698
C         0.62901393705839    7.19833981469011    6.12348433967296
C        -0.35881212018737    6.49580604364983    6.91043925107423
C        -1.22186660038706    7.12848930088063    7.82517386318752
H        -1.19861544330237    8.19943932257582    7.95531922697883
C        -2.13815061587312    6.42324822205269    8.56616154148298
H        -2.78222910321376    6.94805282881395    9.25729894814243
C        -2.25335919251770    5.04017569439516    8.43166634706334
H        -2.97433841804566    4.49553308144856    9.02256679949443
C        -1.45030397099148    4.39228630657605    7.52985820654426
H        -1.53218265292065    3.32333610959643    7.39194219434888
C        -0.51138286870568    5.09481186597489    6.75932838497199
C         0.28417620151840    4.40761765174025    5.80355063438920
H         0.15592584755076    3.33868596689716    5.70466856582711
C         1.16500273960054    5.06899189385861    5.02391163562262
H         1.76248214893131    4.56241813204051    4.28109684498691
C         1.37608058418171    6.48496914093717    5.13722969427679
O         2.25450834321297    6.97259787284809    4.34595227452039

