116
CSD_code = FAMCUS | q = 0 | S = 0 | Stoichiometry = C41H66F5NP2Pd | MND = 4
Pd        7.03078188699052    4.59153987609012    7.43539300875329
P         4.73941208734400    4.44084294671143    7.40433198883326
F         7.03069605612545    3.10204009197019    6.07943316412536
F         7.03073120313984    5.12532434296740   10.75183180014615
F         7.03077544782319    7.63444520106002   11.94225650033940
F         7.03080569880454    9.73271014169071    7.95916113470216
F         7.03076265649157    7.26734334253804    6.57621794637946
N         7.03078887498545    8.63503864508392    9.92765002028908
C         4.18948970615527    4.23140697176472    5.64783352058357
H         4.64527502713713    3.26861848684807    5.37992281378189
C         4.86043841112003    5.27497126845400    4.75204956557779
H         5.93504150860013    5.30061069716663    4.98171510378140
H         4.44836384057268    6.26916902829638    4.92801751269368
C         4.64363081233318    4.89773840607161    3.28999304922490
H         5.10736991500050    5.64247901695823    2.64033208892978
H         5.11924895244958    3.93524766776698    3.09164949221634
C         3.14969025508228    4.80267871626239    2.98794345537758
H         2.68893106147061    5.78315648205438    3.13241664410450
H         2.99791381664873    4.51475786081474    1.94574041532883
C         2.47307853185323    3.78675423513004    3.90548845115128
H         2.89114620869748    2.79546140441725    3.71598630403875
H         1.40288723436460    3.74540464341280    3.68976027367015
C         2.69176837420027    4.15420685042351    5.37334265657008
H         2.22054674418864    3.40686254309504    6.01642182295341
H         2.21952828239631    5.11875065170621    5.56878383520206
C         4.20534561722601    2.88742873858861    8.27284172280054
H         3.11246020901056    2.87390707194411    8.35861125700821
C         4.65167133931977    1.61972355672951    7.54669556220298
H         4.17793084529996    1.55395443319679    6.56597285958468
H         5.73342389601161    1.65150732690587    7.39723418506055
C         4.27590173365061    0.38291273286737    8.35928024472766
H         4.60187055184359   -0.51416720556354    7.82903513752330
H         3.18822148191908    0.33277594406539    8.46112957464384
C         4.91107927748597    0.42722283963324    9.74413141164014
H         4.62127752519625   -0.45454403029098   10.31924073983428
H         5.99743174158869    0.41567721041171    9.63895126620030
C         4.49169481765785    1.69441436205197   10.48002286173621
H         4.98396425421061    1.74390732501951   11.45316888201408
H         3.41211196651709    1.67366011233022   10.65227630563359
C         4.84925822264308    2.93027205693036    9.66143736900513
H         5.94101236888428    2.98131574132920    9.52454672649708
H         4.53884773402807    3.82702463532173   10.20350318006880
C         3.73100959415930    5.76943449479913    8.26711581645254
H         4.32430709923892    5.98302296859510    9.16947531057683
C         2.31658516284273    5.41618855117167    8.72726845550043
H         1.67138396404385    5.23746838697781    7.86591231923484
H         2.31820905097668    4.51818578197500    9.34557672627185
C         1.74873867120530    6.56705191756609    9.56079723500545
H         0.73419628129035    6.31840505407213    9.87983982133844
H         2.35882468742076    6.69211917707881   10.45876275153399
C         1.74018322462859    7.87463882069293    8.77573054991384
H         1.36264255547280    8.68190575784559    9.40569477602026
H         1.07016622078876    7.77922056790466    7.91766196597053
C         3.14546519046568    8.20651261708186    8.28448008352652
H         3.80503345399908    8.37407177713312    9.13976267559732
H         3.12983411395960    9.12377076224346    7.69275886203259
C         3.68131540292902    7.05428230602638    7.43972276860810
H         4.67188670914328    7.30069227386587    7.05766356173465
H         3.01704778838526    6.91379483368734    6.58522702958298
C         7.03072800226903    6.14270505675591    8.62411240880513
C         7.03073933624040    6.26019187137548   10.01032277016552
C         7.03076461603886    7.50992212450922   10.61043384521052
C         7.03079159515533    8.56637140987673    8.61175869559292
C         7.03076677037585    7.35788584684974    7.94408248249689
P         9.32223352887432    4.44087384543661    7.40439783040052
C         9.87200720571752    4.23145408389049    5.64786242562882
H         9.41621799213859    3.26866210544209    5.37996686584502
C         9.20097660236747    5.27504859868824    4.75217458281411
H         8.12638234805647    5.30065861161151    4.98189890105577
H         9.61304578070566    6.26924708967343    4.92815920820889
C         9.41772718037183    4.89786658494983    3.29009878330152
H         8.95394720159411    5.64263408856617    2.64049956846672
H         8.94210658471760    3.93538067626150    3.09173667398221
C        10.91165250501880    4.80284060645913    2.98796211545947
H        11.37240494446535    5.78331854282617    3.13245717531556
H        11.06338668845656    4.51496199497398    1.94573970982073
C        11.58830746819395    3.78689365270639    3.90545002008297
H        11.17024105170070    2.79560326143422    3.71593400699314
H        12.65848808354641    3.74556359594376    3.68967314909222
C        11.36971591677325    4.15429141488765    5.37333183030223
H        11.84098036899787    3.40693212772507    6.01636401181161
H        11.84195193339593    5.11883657051287    5.56877496804805
C         9.85619123439166    2.88744376321405    8.27292515425911
H        10.94907695494132    2.87386878292188    8.35862950219745
C         9.40975431310002    1.61975645383494    7.54681953739173
H         9.88343774640603    1.55396380844663    6.56607191856267
H         8.32799526225256    1.65159729956275    7.39741661866319
C         9.78550952676019    0.38293082164726    8.35938375965046
H         9.45947376017183   -0.51413725789645    7.82915927433356
H        10.87319260686581    0.33274750174269    8.46117774163717
C         9.15040990688765    0.42729045085765    9.74426876572661
H         9.44019926630575   -0.45448722811373   10.31936697443182
H         8.06405078701628    0.41580095591125    9.63915164841684
C         9.56989692918219    1.69446018598620   10.48013784238125
H         9.07768748362448    1.74398474853805   11.45331340839260
H        10.64948896782864    1.67365440254040   10.65232543038109
C         9.21235234207740    2.93032446546800    9.66155651780623
H         8.12059426550665    2.98142591715609    9.52473202884785
H         9.52284167347991    3.82706125630684   10.20360097479191
C        10.33055254305817    5.76947690420743    8.26723062654450
H         9.73727426634777    5.98305726810172    9.16960833721020
C        11.74497352487961    5.41613975417186    8.72732002916759
H        12.39013372961577    5.23741697000290    7.86593348543241
H        11.74334569338471    4.51812388874581    9.34561074456862
C        12.31288059062876    6.56698457712049    9.56082955735815
H        13.32742488027783    6.31828581173685    9.87981959651208
H        11.70284279381514    6.69206284964313   10.45882630519010
C        12.32147181034308    7.87458748189936    8.77579086434650
H        12.69907593918986    8.68183457776319    9.40574580488949
H        12.99144500926310    7.77914511990588    7.91769020269248
C        10.91617735374242    8.20649892524498    8.28460309808405
H        10.25664998522168    8.37406818248963    9.13991591985822
H        10.93181604071605    9.12376252367234    7.69289348723144
C        10.38024076738356    7.05431882601944    7.43983096554107
H         9.38966493890101    7.30077233964894    7.05780540891990
H        11.04447805384064    6.91381549120584    6.58531387584230

