74
CSD_code = FAMDAZ | q = 0 | S = 0 | Stoichiometry = C23H42F5NP2Pd | MND = 4
Pd        2.17661206444830    5.55205748514581    3.69915303120229
P         2.36989794763137    6.50346788374665    1.61107246554385
P         2.30047237512148    4.91504962535715    5.90928017948557
F         2.97438127973557    7.32474382497390    4.24601874149302
F        -0.66780583330628    5.04415361619231    3.50363083076691
F        -2.11285202853844    2.70882029877156    2.84264054973216
F         1.69338903823761    0.40989241280158    2.13239695670456
F         3.27165412172229    2.62774568459425    2.73704649353710
N        -0.17977651598008    1.60065527267230    2.50370849525104
C         4.18071637690103    6.90808605804020    1.44162906989553
H         4.31952620637739    7.73667082492467    2.14540250113438
C         4.99962324027369    5.73045778094612    1.97336753381763
H         4.93807730716568    4.86070071682291    1.32302142490106
H         4.62158411082542    5.45092073257548    2.96667718661046
H         6.04712211040370    6.01195409943369    2.07082116290711
C         4.63508900580998    7.35449550001404    0.05641826862662
H         5.64762533124572    7.75129190933251    0.11713455221179
H         3.99044598794397    8.13603429073614   -0.34108972419946
H         4.64536162343971    6.52678001525163   -0.64827128946612
C         1.45541242385861    8.13433850988282    1.51918151956902
H         1.12205599301260    8.27060086580864    0.48173990439196
C         2.27654709575271    9.34922992854403    1.93879872782170
H         1.63400561649786   10.22890344327340    1.94646976909023
H         3.10040697177315    9.54216813555227    1.25656667337512
H         2.66863113625750    9.20896288466962    2.94210370879579
C         0.24493322708890    7.99807326705694    2.44434615326898
H         0.60287574492974    7.85201545714456    3.46747528112452
H        -0.38203088289608    7.15163170353472    2.16769767405346
H        -0.36550625993725    8.89962711977659    2.41970936219697
C         1.87774702418514    5.73976918033959   -0.02493603460327
H         2.15021989712358    6.46389096584488   -0.80294663238863
C         0.36963955416254    5.50752770609775   -0.08027071543678
H         0.10220968908690    5.03341170376074   -1.02374922797893
H        -0.18620628662249    6.43880130012691   -0.00656883258826
H         0.05436391824510    4.84717362052331    0.72573237044474
C         2.60793122537258    4.42575569613532   -0.28369972808650
H         2.47609056752076    3.74358232349116    0.55233977734363
H         3.67204296341140    4.57753327119981   -0.44004803387889
H         2.20585226340422    3.94562360443914   -1.17505853559781
C         1.42151466770861    3.35675595783140    6.48388922902927
H         1.60170339211037    2.64815316856463    5.66272929203177
C        -0.08657728311600    3.58337022754522    6.57731881981721
H        -0.61020044011394    2.62836242540736    6.56192457343395
H        -0.45112071966872    4.18365262399270    5.74810899589165
H        -0.34174212263452    4.08847746735766    7.50571587752484
C         1.93503075721679    2.72058538544153    7.77359129145228
H         1.90056911543863    3.41695863024963    8.60630667841655
H         2.95098246763577    2.35036519360478    7.66745307445767
H         1.29992964778252    1.87052383203449    8.02093617743151
C         4.06478693919684    4.59888804803398    6.41404028262320
H         4.08316358914869    4.25391912803111    7.45374415022938
C         4.91250234519959    5.86184039382476    6.29002212438477
H         5.96926300478471    5.60633618909827    6.35003854379398
H         4.69197459336448    6.57021147604743    7.08487500850673
H         4.73290886603705    6.35127850477215    5.33444527076994
C         4.61150556172254    3.50787571504909    5.49479172377156
H         4.54896932726534    3.83781529041874    4.45494263955439
H         4.05219583623122    2.57905433050428    5.59126430157887
H         5.65510183348337    3.29974400519454    5.72504860616471
C         1.77085085314580    6.37548160771804    6.93425792773442
H         2.51757817633726    7.12619412813724    6.64609367586890
C         0.41549597363528    6.88723872290484    6.44292953162054
H        -0.41051051867350    6.33864786619405    6.88737278030926
H         0.35493791754600    6.78927470033146    5.35222590797554
H         0.29785111289901    7.93907925006563    6.69740914982023
C         1.80490520388260    6.20287255047151    8.44754848301161
H         1.64534044308218    7.16952846568081    8.92385164531073
H         2.76565971683686    5.81822389136167    8.78356226648197
H         1.01815094898654    5.53360836202184    8.78799623528541
C         1.32665740081938    3.88334604109551    3.15260464372708
C        -0.06503599511483    3.86720515680170    3.15714380874252
C        -0.77654350454421    2.72764418239181    2.83456509319825
C         1.13606212744390    1.57504265817670    2.47675385628045
C         1.91587313323282    2.67754570411457    2.78685672269471

