93
CSD_code = FAMGEG | q = 0 | S = 0 | Stoichiometry = C44H43ClN2P2Ru | MND = 6
Ru        5.55418909550079    2.96799635231552   12.76533730616865
H         6.14381648344679    4.10755193717586   13.58164805886239
Cl        4.66845190727693    1.12134501237335   11.53496549608974
P         7.72342811007372    2.35425835147787   12.43228291942345
P         5.26497618195743    1.63038582852550   14.61511639485916
N         3.71193665990535    3.66782200886187   12.99170087097434
N         5.49388706170274    4.06246711555044   11.13172789699444
C         4.22503219750042    4.78856043232351   10.92204127346604
C         3.52259871524444    4.95220776428505   12.30970803837534
C         4.46416901868868    6.17071191922375   10.28244678293287
H         4.53789375619693    6.09869794966177    9.20011550256917
H         5.37793794659449    6.61713682048262   10.66805148301412
H         3.63817704195588    6.84178981422724   10.49551624069289
C         3.35662948503719    3.92612530455885    9.98875501635754
H         3.08883992908286    2.98958048264787   10.47706062419298
H         3.91757383459827    3.67601347545640    9.09006762762914
H         2.45481240517446    4.45354347054304    9.69132648778868
C         4.18517750955446    6.05266013279005   13.16040041737171
H         5.26875958483772    5.98220088464251   13.11683744179483
H         3.87684964838251    5.93292357861427   14.19815797956408
H         3.87618756676796    7.03679904684565   12.81917605352319
C         2.05158278289210    5.36708997754447   12.11962298641807
H         1.44301711872388    4.55667745174443   11.72757628914624
H         1.99389766392806    6.19757558280926   11.42165356140099
H         1.62858404244849    5.71141211784720   13.06149837043689
C         8.38220532580311    2.83062760420932   10.81448343046791
C         9.66691704088199    2.41407793047592   10.46840256121656
H        10.23805511803337    1.83894450239977   11.18495666074601
C        10.21260263287835    2.71453590188356    9.23788195147791
H        11.20867496481624    2.38177062824881    8.98727326596605
C         9.46206195943076    3.44295249104413    8.32168105932821
H         9.87284031225988    3.67798851494202    7.35068406192470
C         8.19630503976646    3.86429463543619    8.65192754174773
H         7.62468478677635    4.43207106760081    7.93010911487087
C         7.61684749671025    3.57884932550457    9.90489473031917
C         6.29580066380801    4.10466399670463   10.11443746506638
H         5.95635344045354    4.64238334524322    9.23098405767942
C         8.34692911495016    0.63521399032527   12.43208532039174
C         9.30319859357949    0.14389575856506   13.31165947925885
H         9.68944019670272    0.77040402422943   14.10344055220651
C         9.77158503796136   -1.15023760786934   13.16564070878725
H        10.52007197261699   -1.52658886409109   13.84843154560871
C         9.29400659251193   -1.95693862938598   12.14728750661761
H         9.67133489499912   -2.96312526772124   12.03418954231735
C         8.33009479262752   -1.47407592451077   11.27630753179895
H         7.94944632678397   -2.10371941813501   10.48520309787225
C         7.85698010885590   -0.18474543847747   11.41769835023111
H         7.09553356100156    0.19821699473131   10.75089088048424
C         8.86730043100381    3.18261059675189   13.58765924842281
C         9.84668884861136    4.09067081382200   13.20720789541332
H        10.00649415103528    4.31339356347330   12.16192148148167
C        10.61658392818839    4.72279634182976   14.16998439232457
H        11.37696657477530    5.42815764697505   13.86624022014220
C        10.41375412287035    4.46212345845322   15.51394801053813
H        11.01664791242917    4.96013115793906   16.25929164942382
C         9.42463459440458    3.57082657258572   15.90141806878668
H         9.24861761099657    3.37534802994397   16.94974574998936
C         8.65559370911486    2.94245031828790   14.94285654233614
H         7.86140979122621    2.26316798624333   15.22817176920864
C         3.56643615580524    0.97767421435631   14.59997258860393
C         3.24515202242699   -0.28682652215495   15.08052977493614
H         4.03340974467681   -0.96448783793907   15.37511809624895
C         1.93125218434594   -0.70669229624549   15.17356257277518
H         1.70759292439415   -1.69890364303790   15.53666290043936
C         0.90737997157021    0.15513350371813   14.81132575173930
H        -0.12310072902342   -0.15766771755175   14.89413862108021
C         1.21040438482384    1.41240837159837   14.33934917078481
H         0.40797354367954    2.07661700880515   14.04747089968236
C         2.53810707436574    1.84710710469604   14.19934043164913
C         2.70230671804136    3.15475269381291   13.60887369856830
H         1.76860649491920    3.70996048722820   13.63477090664617
C         6.21005069981440    0.09318518812045   14.89261284723170
C         6.07468392815664   -0.91873309887095   13.94236822343333
H         5.44149842802387   -0.75307106705564   13.08067786120837
C         6.72977140059052   -2.12295732441303   14.10970459630677
H         6.60190204717963   -2.90879739104518   13.38007075265694
C         7.54742648527536   -2.32216959498593   15.21057034631675
H         8.05837912597654   -3.26485988593221   15.34206214592497
C         7.70933093133153   -1.31074176019865   16.14113803589279
H         8.35119101864459   -1.46002091447217   16.99771120871789
C         7.04194273489861   -0.10778571803390   15.98882686294663
H         7.15924485037205    0.66567688876955   16.73602669357284
C         5.21519641908454    2.34777442207631   16.30490568972149
C         5.64142248891809    3.65209774518259   16.51770036369449
H         6.01424329757305    4.22411042343324   15.67860920688465
C         5.59493279720243    4.20711483531047   17.78498174030084
H         5.93414895051135    5.22126385408138   17.93979737805321
C         5.11612475236814    3.46452125899022   18.85036650522609
H         5.07854089010269    3.89563919342072   19.84027196258938
C         4.68131440825340    2.16435704625296   18.64384157606165
H         4.30392321391454    1.58247828102822   19.47253277865117
C         4.72804131974416    1.60778683923055   17.37987569733426
H         4.38720192540034    0.59358655126390   17.22574554972845

