87
CSD_code = FAMJEK | q = 0 | S = 0 | Stoichiometry = C41H36ClN3O3P2Pt | MND = 4
Pt        3.42889188950610   15.33623563964740    2.86326469529372
P         4.37305089228288   17.14489520773638    1.83970018529082
C         5.15551931341014   16.72219977850033    0.25684921810704
C         5.01698423708738   17.44522111025141   -0.91974449320732
H         4.40435937321954   18.33411095677781   -0.94579619647432
C         5.65664822667862   17.01243017815450   -2.06865452874751
H         5.55165597332370   17.57793747634025   -2.98288418832684
C         6.42496517783344   15.86096186029227   -2.05146463227930
H         6.92187311562042   15.53157673444633   -2.95206947759772
C         6.55011024130034   15.12712423085421   -0.88211030172415
H         7.14199842633387   14.22390405318935   -0.86981095709874
C         5.91472968567931   15.55229594089426    0.26864276336769
H         6.00496769372832   14.99500324538619    1.19364190528351
C         3.23080395108431   18.52232652019595    1.54392947771774
C         3.66354223272059   19.74855161742823    1.04725534227673
H         4.71218188342904   19.90215839023615    0.83006694197045
C         2.75188343374419   20.77071342717042    0.85602828740292
H         3.08464653228015   21.72162756368063    0.46608115962207
C         1.41524961350820   20.58136565192974    1.17312018693982
H         0.70915065616988   21.38467502565569    1.02303832016185
C         0.98863088240120   19.37320136495095    1.70021533107856
H        -0.04759583714157   19.23378236754004    1.97066898976216
C         1.89577231024574   18.34572419208960    1.88772889486166
H         1.58930282344217   17.40202431389694    2.32614432813000
C         5.68812787738722   17.96378680902713    2.79357565431232
C         7.03613899596194   17.67792837345909    2.61163344842188
H         7.34675262437321   17.02628587362916    1.80829453226621
C         7.97704846896303   18.21899444042255    3.47065169464295
H         9.02314678823864   17.99043856686385    3.32834211848946
C         7.58246153772038   19.03816517340418    4.51538512713932
H         8.31759880624213   19.44430190821732    5.19392797487663
C         6.23979690746277   19.33228683495235    4.69438547382437
H         5.92968252168283   19.97233688443908    5.50713846044871
C         5.29451799740443   18.79753362982095    3.83998910779971
H         4.24347469371161   19.01157411522889    3.98427882906519
P         2.11606390532351   14.53147084206656    1.20716370682435
C         0.34135844376206   14.76641060839790    1.49881050293626
C        -0.07576492965155   15.19314698073245    2.75567022502979
H         0.65988851641184   15.36906111998854    3.53202979605066
C        -1.42320410626102   15.37806509675881    3.01008825981368
H        -1.74407839389425   15.70773200883492    3.98676564815028
C        -2.35646362153679   15.13992922662343    2.01470254542610
H        -3.40875864998294   15.27957285517226    2.21451921864780
C        -1.94273577143130   14.72674205164435    0.75750884934274
H        -2.67133434106463   14.54811812688548   -0.02005742004347
C        -0.59779528031313   14.54402959836701    0.49400736166314
H        -0.27150102893334   14.24216161694952   -0.49246892206121
C         2.30576689230994   15.14668852185098   -0.50355351326967
C         1.71310849895793   16.35560263637780   -0.85873490547210
H         1.12107351491815   16.89326968977181   -0.13158565890926
C         1.86465366044658   16.85867941518867   -2.13658628183942
H         1.39480182182001   17.79401160544074   -2.40391052696644
C         2.61222990267920   16.16256184423892   -3.07263360740652
H         2.72333020297916   16.55132971941712   -4.07392406958316
C         3.21576398511355   14.96713862419588   -2.72144574438423
H         3.80152123323328   14.42330876237120   -3.44767978385829
C         3.06890718677417   14.46164630362592   -1.44224306987722
H         3.53995184589503   13.52734375896558   -1.17267061325204
C         2.39932196788503   12.74931783900247    1.00539729763557
C         1.40697327530511   11.83328423264256    0.68700146293785
H         0.38350421168908   12.15760391278391    0.56749472261086
C         1.73124006610502   10.49373713627124    0.55059967745017
H         0.95787374183753    9.77807295775452    0.31264492749947
C         3.03682302950438   10.06865495397846    0.72688743054785
H         3.28097723186279    9.02154955282274    0.62388713368097
C         4.02773764639687   10.98210325463416    1.05367189506782
H         5.04241853401957   10.64786624385644    1.21127414690491
C         3.71055603686297   12.31835645244229    1.19697016518335
H         4.46490460096929   13.04038724704269    1.49203680035320
Cl        2.58640788399882   13.52762331622785    4.02687351617196
C         5.80141114208551   15.42066721206479    4.51256942625446
N         4.52081538383948   15.80997296663815    4.50460315819082
N         6.54223448662743   15.77474112381736    5.63119173376484
C         6.02920070109847   16.52903698562276    6.66482542982359
N         4.70686773516473   16.89401710388207    6.54246752844265
C         3.93178328273663   16.58106743849267    5.43104737483597
O         6.28939042983378   14.82097676789698    3.56674016235128
C         7.93499006861037   15.38491847105057    5.71416896083738
H         8.17241267855317   14.84023394743071    4.80335214755527
H         8.09076212569846   14.75292542309370    6.58857001187300
H         8.56084943020832   16.27281322325708    5.80449848971294
O         6.70457766643319   16.86324062133508    7.61138534385920
C         4.13254552422999   17.70080971635058    7.60043176749805
H         3.12955998708453   17.98013327704721    7.28553321262784
H         4.74720103461980   18.58593986208186    7.76373132441339
H         4.09264295491555   17.12626093664088    8.52609933105179
O         2.80056370726640   17.00678735326618    5.27802975079602

