93
CSD_code = FAMMEL | q = 0 | S = 0 | Stoichiometry = C46H38N2NiO2P2S2 | MND = 4
Ni       -0.00002744550926    0.00001116655226   -0.00005785249678
P         2.08082165447421    0.75061698525224    0.22267333232266
S         0.57098657034996   -0.73588855952305   -2.06448188198191
O        -0.02128330090047    1.72509688726013   -1.63037547002431
N         0.62676303341216    1.29829643446854   -3.76823606848501
C         0.34974984585818    0.91037965521555   -2.47419435713256
C         3.38256295438957   -0.42010389860646    0.72755516555534
C         3.06854874086410   -1.74014355245803    1.01989890765517
C         4.06891498100819   -2.62826950316794    1.37886080102591
C         5.38407380555807   -2.20270275553655    1.44141414711194
C         5.70366027606694   -0.88824602185944    1.13410466905311
C         4.71056290178432    0.00128600008964    0.77300197837549
C         2.91306310874266    1.45123342217423   -1.25004866532276
C         2.94117369862581    2.81151558932281   -1.52987497028837
C         3.51810831641485    3.26789864241405   -2.70228893622919
C         4.06587491025949    2.37546276129293   -3.60716483103788
C         4.05137437062846    1.01871251983316   -3.32860864068580
C         3.47980320566855    0.55817041686176   -2.15817362560301
C         2.20222602304675    2.12401686438624    1.41777697429865
C         3.06848602107701    2.14513649382900    2.50135582979387
C         3.06604572134666    3.23023977860802    3.36249164469226
C         2.19996739893838    4.28899323524867    3.15336888621780
C         1.31053707709989    4.25645274488996    2.09021565012400
C         1.30284841935052    3.17421294439921    1.23294765488849
C         0.55125640893847    2.59621843422860   -4.21663874885499
C         0.94053232962565    2.62336335792343   -5.51712858153604
C         1.26936515383284    1.29224915688922   -5.88755783148515
C         1.06926049384262    0.50605683056418   -4.79783582038612
H         2.03947405152695   -2.06698610194275    0.96096020611718
H         3.82037913476252   -3.65441887699946    1.60662261985185
H         6.16495433193186   -2.89435007235651    1.72213093352935
H         6.73187751860110   -0.55844173654506    1.17263426861852
H         4.95995660471839    1.02220130744170    0.51611705456698
H         2.50969587219779    3.51715914082092   -0.83604759945734
H         3.53121232690617    4.32733638537008   -2.91275924723166
H         4.49998003784931    2.73470339335615   -4.52805743233435
H         4.47789678237515    0.31626226346752   -4.02911336458655
H         3.46000279192266   -0.50246691637913   -1.94746262647381
H         3.73617980516016    1.31574937319914    2.68479690721056
H         3.74157541999074    3.24257229312220    4.20568789488881
H         2.20412424899374    5.13154048360202    3.82934206727378
H         0.61538909583247    5.06967035716110    1.94059028222238
H         0.58004279689835    3.11039635799210    0.42808899349538
H         0.22810373498609    3.37485943685377   -3.55604073244604
H         0.99056095626209    3.48762958379400   -6.14948721690404
H         1.61154102726370    0.96968451877937   -6.85094711365421
H         1.19640778845519   -0.54814241352906   -4.65587853986957
P        -2.08087310615845   -0.75061460055158   -0.22269461740515
S        -0.57093162758444    0.73601611318999    2.06437710482471
C        -3.38264794713984    0.42003106972641   -0.72765539692563
C        -2.91306666520047   -1.45118142584484    1.25007828176079
C        -2.20223233929520   -2.12408888916372   -1.41771903896056
C        -0.34984567940927   -0.91026316161146    2.47410785744959
C        -3.06865446780042    1.74002605728418   -1.02021919553493
C        -4.71064594083498   -0.00137683171700   -0.77298253505043
C        -2.94108433970443   -2.81144906802972    1.52999481223318
C        -3.47985230998463   -0.55809199747295    2.15814295692066
C        -3.06860578861881   -2.14537161006163   -2.50120307591346
C        -1.30276333500216   -3.17420601787946   -1.23288496103175
O         0.02133741206600   -1.72498270335422    1.63035055500684
N        -0.62672860294055   -1.29812354693051    3.76819384697487
C        -4.06904135321317    2.62808635340614   -1.37928314607586
H        -2.03958277333480    2.06689214057489   -0.96137177955986
C        -5.70376500671308    0.88809259336242   -1.13417697624750
H        -4.96001812327662   -1.02225471365809   -0.51592909460411
C        -3.51797943106326   -3.26778458828958    2.70244268974192
H        -2.50953873911916   -3.51710086792976    0.83621759930628
C        -4.05142108796558   -1.01858935717058    3.32859836337235
H        -3.46010566786186    0.50253290379983    1.94736136686528
C        -3.06617967081320   -3.23055525902364   -3.36223688229738
H        -3.73638795663303   -1.31605572587503   -2.68464015385478
C        -1.31046442576340   -4.25652606660867   -2.09005181599626
H        -0.57990661289551   -3.11028574055651   -0.42808010294586
C        -0.55118332498699   -2.59603103966035    4.21664077201166
C        -1.06908365435516   -0.50584143249049    4.79782147458148
C        -5.38419985379851    2.20250245407655   -1.44170870604811
H        -3.82052382013780    3.65420179492616   -1.60721572562775
H        -6.73198047540360    0.55827398502543   -1.17261338357768
C        -4.06582899855964   -2.37531925927089    3.60724354934885
H        -3.53102830926219   -4.32720374737353    2.91300046095562
H        -4.47800092673305   -0.31611733101515    4.02904452208790
C        -2.20000306368090   -4.28922700134150   -3.15310956874933
H        -3.74179906709732   -3.24301449757937   -4.20535924842061
H        -0.61524956280465   -5.06968499996198   -1.94041941958674
C        -0.94036519266902   -2.62313137781400    5.51715718383839
H        -0.22812030244214   -3.37470225422849    3.55603427307159
C        -1.26916029868171   -1.29200187426938    5.88757071294022
H        -1.19619419532643    0.54836228879372    4.65585505393142
H        -6.16509704041247    2.89410014135733   -1.72250056206617
H        -4.49993699380260   -2.73453774824302    4.52814370434822
H        -2.20417328372600   -5.13183819988230   -3.82900291189715
H        -0.99041897175432   -3.48738241483490    6.14953477147964
H        -1.61127807968865   -0.96940735369524    6.85096967087851

