49
CSD_code = FAMPEP | q = 1 | S = 0 | Stoichiometry = C23H21NO2PPt(1+) | MND = 4
Pt        0.73359592198548    8.19592485296747   15.86853260547089
P         0.51875680882183   10.39808703395426   14.87304963771645
N        -0.78839273120457    8.96780511583188   17.00226490177605
O        -2.11006813061158   10.59546989590473   17.72102425069869
C         0.54443471129700    6.42091189629254   16.86416528068987
C        -0.95574361855709   10.16107673958730   13.83824351340640
C         1.45700251104364   11.69306860554601   14.02377027988115
C        -1.04682533418751   10.22907376913826   17.03660487153597
C        -0.24321555468256   11.26101793972484   16.33980195232863
H         0.55129258384423   11.60938746431160   17.00696284757633
H        -0.86923798413992   12.11487385850353   16.06614646258272
C        -0.27085285819735    5.42114748171197   16.35225285829152
H        -0.72994705640757    5.52825876274052   15.37459599244617
C        -1.79661966527374    8.27076229888300   17.79772542043583
H        -1.31730298753337    7.74052219649525   18.62430493440525
H        -2.31798800751258    7.53749196163926   17.17783058003705
C        -0.49456715621843    4.26415711290378   17.08440723217388
H        -1.12618702200892    3.48801461273667   16.68003211257912
C        -2.71387705530129    9.41652613512234   18.27198213261652
H        -3.73276082128860    9.34568067020681   17.88582553878848
H        -2.74588600735770    9.52598817371685   19.35750528889218
C         0.09788254260840    4.10312977822035   18.32488796342164
H        -0.07283255324407    3.20091261432717   18.89135558675982
C        -1.41265518410578    8.86110941132722   13.63111285032466
H        -0.85105344309032    8.01566621305862   14.05004013838513
C        -1.64187363654344   11.23591308361708   13.27978353573030
H        -1.27546023918175   12.24316691285842   13.42355931165699
C         1.62541307812272   11.56048062620324   12.64567102870674
H         1.16276324432584   10.73080630394827   12.12760016526018
C         1.14202906645834    6.25457164073351   18.10501489281873
H         1.79351510796556    7.02120898559406   18.50929619799192
C        -2.55361752334774    8.63870461970509   12.88140949751634
H        -2.90669648921689    7.63198434401247   12.71818235988295
C        -2.78066171176138   11.00702351295291   12.52959317311477
H        -3.31200439400296   11.83908564995038   12.09398458142309
C         2.36986308518893   12.49220511082149   11.94857167023486
H         2.48963357174290   12.39327622335019   10.88079223480927
C         2.07625619266060   12.73919071236675   14.70107035822709
H         1.98077572240400   12.83840908105289   15.77244086182143
C        -3.23742932840045    9.71241249280478   12.33267881953430
H        -4.12497252284647    9.53960700287093   11.74422294897132
C         2.81972815375470   13.66756214823282   13.99417355456433
H         3.28985679968245   14.48524297173427   14.51872549500924
C         2.96431309197819   13.54864756092991   12.62149184918585
H         3.54545254570292   14.27604355899402   12.07668047924094
C         0.91696323392273    5.09581874482729   18.83426034917640
H         1.38767190934917    4.96979085363097   19.79734371439967
C         2.15118939916534    7.38251704608697   14.97458572542428
O         3.02793973419818    6.87596621787441   14.46464196207648

