47
CSD_code = FAMPPD | q = 0 | S = 0 | Stoichiometry = C18H19F6NO2Pd | MND = 4
C        -1.00933377841620    2.40860416658056    6.89887806023529
C         3.44202899246124    4.34245424477706    6.71531782597472
C         4.20126895709591    4.23385487621704    5.56172684869636
C         5.50197150467586    4.72226977318609    5.53191194179579
C         6.05451163258718    5.31465937593900    6.65192273137899
C         5.30873181485677    5.42157050582521    7.81435613295743
C         4.00867813800739    4.94356910407040    7.84484657106102
C         3.13009315625595    5.02421891312665    9.06826148515525
C         3.13310720535641    2.67143820440668    9.55570195762188
C         1.18162891079756    3.96610459277758   10.04067608599287
C        -2.39022584869407    1.84969859688456    6.97234569087115
C        -0.07486813891461    1.82827606909332    5.84104278903107
C         0.11162474030543    2.97084079022720    4.86422823155352
C         0.87975874648495    3.97743373581081    5.28992531741158
C        -0.72397906134521    2.90897871185187    3.61649196650509
C         0.98411176262898    5.31612088288820    4.64450089401528
C         1.25486538337111    1.48092631971500    6.58145520875473
C         2.42857770036360    1.15871370925329    5.67655237347554
F        -2.00889843283117    3.26703162719422    3.84042848780437
F        -0.26959347481357    3.66912716343759    2.62155678232779
F        -0.79218574518228    1.65076091530073    3.12569687430658
F        -0.17744337917770    5.79859360921953    4.16464407781983
F         1.87874458293160    5.39005404045372    3.64706837912080
F         1.38218074063626    6.22045345448164    5.58262320969637
H         3.79323839071197    3.78736480623868    4.66402343904637
H         6.07931348269626    4.64105825423338    4.62292658149036
H         7.06510347456474    5.69382704492392    6.62355604916398
H         5.73520881064348    5.88139658375674    8.69508042838976
H         2.45796522027012    5.88879501653310    8.96469453749684
H         3.71855577411710    5.14723832392026    9.99131295678009
H         2.55908098401375    1.74842184816208    9.47133518123472
H         4.01267349315718    2.59738583138254    8.91418045389900
H         3.46277091047403    2.79928063847997   10.59578723815552
H         0.60537336657038    3.03939006569665   10.07258864605754
H         1.52438728399460    4.20318587784922   11.05817060001036
H         0.53238869525284    4.77358573876907    9.68620247556736
H        -2.96598308859253    2.35187434519695    7.74539671372113
H        -2.88177781894203    1.97734771005315    6.00875782915687
H        -2.33820712286926    0.78288007134958    7.18340224711080
H        -0.47874791686606    0.92613545331507    5.37527581041479
H         2.34671886563074    0.10470123138002    5.40724052714681
H         2.42357673146408    1.75335356092456    4.76666215162084
H         3.36511987285461    1.29795201940702    6.21752892355278
N         2.30950912774356    3.79940432602646    9.12865540828846
O        -0.61480467863772    3.30223061946309    7.61867776767783
O         1.20282289253757    1.08536730671115    7.74088723604456
Pd        1.58965713976726    3.74086994350932    7.12529687440948

