81
CSD_code = FAMQUH | q = 0 | S = 0 | Stoichiometry = C38H32ClN2O7Re | MND = 6
Re        2.78622630619404   11.62691039929794    8.89689136521672
O         2.40134809531285   11.65159834750055    7.27920470877562
O         3.50092036668558   11.08169803584707   10.63054587523995
O         1.46517506943255   14.27198065905063    3.18652963324304
O         4.97735066775935   13.19905521313473    0.31804754159325
O         1.03082497755830   11.93219492233859    9.85901969640924
O         7.16177087140797    9.08885106509434    4.10493657335634
O         9.49224103272048    6.73782645931159    7.51680685585669
N         4.95853446785495   11.20473273368644    8.52343240797679
N         1.96622225268045    9.53083862077598    9.08750355800482
Cl        3.40170929990645   13.79467420387553    9.17289411551302
C         5.52064958539182   10.62659996375244    9.60261340800491
C         4.68169752929796   10.55381937391868   10.75959996075198
C         5.18257093488401    9.94260148809652   11.90014112325780
H         4.56243322450548    9.87267048221280   12.78036496869415
C         6.48269146825520    9.43537514291417   11.90411126843806
H         6.84840204486315    8.96545661944246   12.80558282598441
C         7.30473413901585    9.52655959796460   10.80655902817811
H         8.31333504181107    9.14332860252351   10.83798655637082
C         6.84232221871276   10.13513295625349    9.62691789686749
C         7.59533195342374   10.31686627515190    8.44488750128046
H         8.62188694468435    9.98380593268047    8.41259511250968
C         7.02041440760025   10.93062254606846    7.37135986039570
H         7.58429470265098   11.11514090249374    6.47218798664900
C         5.67814014033466   11.37974059853394    7.41710353920275
C         5.04905121361274   12.05450621962981    6.30851159191859
H         4.25497228959608   12.72778529872250    6.60081654350845
C         5.33083160454789   11.86871939880815    5.00936349614336
H         6.12020519124292   11.19149190064473    4.71033057490226
C         4.60848104778719   12.50595749787309    3.92552943336549
C         3.35630340243118   13.08238873009042    4.13662984568596
H         2.90589220988979   13.01714193565387    5.11181510456524
C         2.68518176988641   13.68791044153240    3.08214144417434
C         3.26789692064892   13.71246035338997    1.81719483295328
H         2.74852541804068   14.18037041152686    0.99779886064661
C         4.50949148123173   13.12492647911266    1.59713596737077
C         5.17750231198027   12.51448563637276    2.65002474660672
H         6.14169031567110   12.05238153520683    2.51108584936205
C         0.84267081420771   14.29956659082637    4.45379215876139
H         0.65663656281372   13.29167050837299    4.83551485498225
H        -0.10642468401890   14.81033611239188    4.30025100706395
H         1.44098652951421   14.85342162278836    5.18277698859261
C         6.22274923604680   12.61644302485795    0.02638222565341
H         7.03078793095065   13.08355114412211    0.59953435834209
H         6.38907100112912   12.79171177882727   -1.03546996310061
H         6.21696599934857   11.53788063571088    0.21712258942948
C         0.88377934848060    9.57094829929674    9.88508279039437
C         0.40169273012651   10.86787768745529   10.25671652140312
C        -0.73556781344605   10.92870503765581   11.05704159764368
H        -1.11529406562922   11.89806982515418   11.33885576689025
C        -1.36484441936618    9.76458250663269   11.49235614403942
H        -2.24347611440163    9.85419893967884   12.11434824763886
C        -0.89285342435623    8.51596508308877   11.16324916789101
H        -1.38377869988084    7.62369415060048   11.52029514898343
C         0.24830387057933    8.39282085886314   10.35485375170815
C         0.83542945657963    7.16613214013799    9.97507023122652
H         0.39203888996799    6.24198734927801   10.31758645334835
C         1.95095051218947    7.15888822571317    9.18708178001593
H         2.40965608315345    6.23430520240086    8.87420105450826
C         2.50537942144149    8.37865091157036    8.73464316251913
C         3.67229274615032    8.42909819074766    7.87204875576303
H         3.68364541638536    9.25777325934165    7.17751721260896
C         4.71187948906355    7.59340313070442    7.97720295043262
H         4.70077356199386    6.82786475980080    8.74372393542000
C         5.93846212217718    7.68112224492978    7.20450648212091
C         5.99658986696469    8.33089665029834    5.98014760641763
H         5.11669553620963    8.76082155644131    5.53241366094464
C         7.20639096867476    8.42392467918421    5.29208231630944
C         8.35610517988654    7.87607169985313    5.83680541440758
H         9.31371884092291    7.92901584773815    5.34680715198376
C         8.30152074370842    7.22238429349171    7.07019419855191
C         7.09762680368102    7.11408239508682    7.74463596158317
H         7.03519859461106    6.61776930236821    8.69963265020475
C         8.34052702871061    9.18554235332130    3.34084973921376
H         9.11561913569974    9.75358068547497    3.86593428487405
H         8.06040355740290    9.71436354729882    2.43089511824044
H         8.73082842490541    8.19832714060815    3.07692452721071
C         9.52224136706023    6.05800590550665    8.74891833712788
H         9.20015788632252    6.70348078784922    9.57240655969738
H        10.56126524070107    5.77016550013243    8.90097591939952
H         8.89794540387176    5.15939145383038    8.72688952053719

