70
CSD_code = FAMQUI | q = 0 | S = 0 | Stoichiometry = C25H40ClCuP2Si | MND = 4
Cu       -1.06925546791463   11.95048118442121    1.76511788321663
Si       -0.58227096337672   12.38759467233005    4.98659962011172
H        -1.54598893866784   12.82380137381751    3.96895626743632
P        -1.22262332464841    9.91679101782588    2.75615720996919
P         0.68139837654622   13.36901785559978    1.96599214289227
Cl       -2.63450356596268   12.73777407889410    0.41593704573249
C        -0.84837216606452   13.50263990780927    6.51064373068181
H        -1.80439939703018   13.29046189275345    6.97765875020701
H        -0.85179398427987   14.55055976858827    6.23029417873442
H        -0.07368805117559   13.37305231858752    7.25941804509873
C        -1.01838697512268   10.60381495873812    5.47844928140614
C        -1.41034101417383    9.62320907491394    4.55737881693594
C        -1.88675229151618    8.39748492579003    5.01699273277354
H        -2.23964262793956    7.65417733460017    4.31909548755872
C        -1.93407018538558    8.11045051609301    6.36836351643417
H        -2.30531404449740    7.15304528655690    6.70446295221970
C        -1.49958482359355    9.05324808331624    7.28282112680313
H        -1.51776016493245    8.83548200643944    8.34078418840314
C        -1.06504144159869   10.28581839486519    6.83299211428739
H        -0.76131988015777   11.02665977525653    7.55677824220414
C         1.27169544504594   12.51301250083561    4.56111342193480
C         1.80993306574980   12.97455370863929    3.35113462780928
C         3.19222549805566   13.05384953015552    3.19791499025821
H         3.61410203963502   13.41009780304308    2.27048483671013
C         4.04726501964988   12.68164279246880    4.21806398035582
H         5.11630767160953   12.75400682343079    4.07971276577428
C         3.52605194416660   12.21235924121046    5.41118824637614
H         4.18503244240969   11.90769009125619    6.21101062728981
C         2.15542165803949   12.13678159420614    5.57121914062185
H         1.75645253128265   11.76423806777741    6.50434779885661
C        -3.93251495582230    9.87393485500370    2.46010029426904
H        -3.85698608623751   10.89106061771701    2.07600374402641
H        -4.00903224930602    9.91396001633504    3.54712363726190
H        -4.84284807277061    9.42899457815771    2.06268730138710
C        -2.70948958408795    9.07197110688851    2.02171833347425
H        -2.79177198612262    8.03905027182808    2.37775415129943
C        -2.57907765743889    9.08368697826172    0.50158197603947
H        -3.47022590958447    8.65470397376777    0.04701858309327
H        -1.71412372961644    8.51270457482321    0.16677559709015
H        -2.48345025937061   10.11039664674506    0.14800825597812
C         0.00475934275584    7.28178294252215    2.56893871451386
H         0.88806881187131    6.74702946153829    2.22111906697572
H        -0.85107094880156    6.90980358543262    2.01110537932715
H        -0.12888447097157    7.05443137954932    3.62388978610416
C         0.21329731170742    8.77631587268801    2.35818004906544
H         0.40073246195577    8.95791769175199    1.29073983579675
C         1.42027950830958    9.26722874650765    3.15292571735089
H         1.28672653981846    9.06242551560078    4.21419841110273
H         1.54514946230167   10.34220357555475    3.03042093634335
H         2.32939272927886    8.76979422944738    2.81891362640740
C        -0.32414036772157   15.60073305471740    3.27320185413121
H         0.16338496598281   15.29675414417238    4.19837319105152
H        -1.29469521954803   15.11343081316279    3.21114125242186
H        -0.48416066761975   16.67752415073409    3.30461855620261
C         0.53529380510867   15.23129458582506    2.06930889232339
H        -0.01521411131614   15.50497872928413    1.16036969793101
C         1.86846807887329   15.97065801357053    2.10817962033565
H         1.68561961764917   17.04305862798952    2.16121979493555
H         2.46354535753598   15.77870115971417    1.21860704486030
H         2.44379970490757   15.68121125339156    2.98603846869797
C         0.84905355326667   13.64610934565499   -0.75997861955538
H         1.25430888435627   13.27744956756130   -1.70090055430241
H         0.83788737107257   14.73303454877243   -0.80190897823728
H        -0.18011716253489   13.29398619007189   -0.67154941475712
C         1.68837025226722   13.13802465784293    0.41235137542270
H         2.63609155991808   13.68473775219857    0.44905623586336
C         1.96546325358273   11.64507282009362    0.25931716717160
H         1.01979901210202   11.10050254865107    0.25262032695936
H         2.57761769745888   11.27004040909082    1.07838658095151
H         2.48331777262632   11.44550442715647   -0.67753965841068

