89
CSD_code = FAMSIY | q = 0 | S = 0 | Stoichiometry = C37H47CuNP3 | MND = 4
Cu        2.85835856428454    4.65605015698610   11.18140737959244
P         3.70460048006196    7.41110997443376   10.40612127424047
P         5.14232023257367    4.85311662687936   11.36490836771076
P         2.08740168663647    5.14831208881745    9.08871613220420
N         1.61052060852523    4.40695348930300   12.61028957450749
C         0.87025013651243    3.31152412807228   12.95628205237232
C         1.08913669444531    5.46138706521683   13.30694350573280
C         7.35261634894619    6.51402073402558   11.97288022452540
H         7.80714508680630    5.65302237909624   12.43823362641648
C         1.02293538818528    1.99203428803097   12.53605605994490
H         1.81374967031200    1.72027682869291   11.84754103478496
C        -0.15408606472104    3.65239881051043   13.88410490918703
C         8.04714810293115    7.70945585531884   11.95191270404587
H         9.03672828365706    7.76658978257428   12.38156082528232
C         3.22239038342806    9.19846089287151   10.50429674006401
H         3.64254098734222    9.80230716918992    9.70095791372886
H         3.54967607271521    9.57610248738722   11.47349892263022
H         2.13746077418067    9.26896940731312   10.46821903016451
C         0.15274243886542    1.04123578517110   13.02595931328724
H         0.25754503187619    0.01165255039507   12.71041412334840
C        -0.01160324427950    5.05707615385686   14.11274477678423
C         1.51536537145654    6.78724076563662   13.31496414365520
H         2.37341382903665    7.09377187428542   12.72248294908577
C         6.21587319168006    3.84137637370260   10.20050396900997
H         5.62124108395163    2.93138895327636   10.03787708024996
C        -1.01857947257378    2.67628284051773   14.36045041129328
H        -1.80033613464211    2.93249111929107   15.06246073875496
C         3.95156322191170    6.87337138827527    5.83144915005650
H         3.98881447475387    6.74155659794060    4.75972432497284
C         0.83640113229288    7.69224965501728   14.10218332559027
H         1.15359679013933    8.72682536032736   14.12017806482155
C         3.12413486651775    6.06899764506307    6.59400000498162
H         2.52942470296425    5.31363310461988    6.10271384548812
C        -0.86061682438492    1.37638185810195   13.92479622369524
H        -1.52414981951769    0.60231675459909   14.28515237746810
C         4.68272955252666    8.00919864088152    7.80964607643099
H         5.31003525981078    8.75200454999227    8.28199771479289
C         5.47508347599568    7.56886273832276   10.88407649981754
C         7.60655084355249    3.42635880976412   10.66668936517042
H         8.03951450824397    2.75612680816822    9.92441136481926
H         7.57822736942013    2.89674184681848   11.61549352646651
H         8.26285176780992    4.28834710926686   10.75577607146712
C         6.30247632260307    4.60712434757394    8.88245400892192
H         6.71721017856146    3.97782296144711    8.09649743411029
H         6.93969287243118    5.48408446165361    8.99202651525886
H         5.31422816071946    4.94569005536270    8.57347304686044
C         6.07605106501312    6.42586585493543   11.42726887500180
C         3.05819204876189    6.22870295475591    7.97509739845484
C         4.73769982269283    7.83934599960447    6.43841031681330
H         5.39410447191687    8.45650732104290    5.84230037479315
C         3.84420485702534    7.21786910675886    8.58266418376876
C         4.88855800403056    2.73511679963672   13.10781617010827
H         5.02752079963319    2.30772763690354   14.09921750109562
H         5.34573930347546    2.06747862042147   12.37865432734056
H         3.81832760040283    2.79085162121572   12.90887418778975
C        -0.67925320344523    5.98815010088106   14.89684556272854
H        -1.51812180840876    5.68754369088437   15.50956217893538
C         1.82617114090539    3.58130165918512    8.10444756901783
H         1.48082418570473    3.79416670887863    7.08817932128079
C        -0.25233903518955    7.30068580406152   14.88272127485574
H        -0.76027680473376    8.03967199132241   15.48708793390943
C         5.49193160677340    4.13377141372333   13.04363217429501
H         6.57219192617132    4.08422490551063   13.21965737579815
C        -0.18985743648479    6.07529610546590    7.62292918479552
H        -1.17045305930455    6.54482732004832    7.68927591322795
H        -0.31071118376288    5.12576020052232    7.10750214474438
H         0.45339155581532    6.72025309877849    7.02575974997997
C         6.18528255263251    8.76561607388200   10.87354118669875
H         5.74280504271703    9.66554139795104   10.47426454999284
C         0.38267570727006    7.22253395738435    9.77562478590899
H        -0.63449723634664    7.59022951046764    9.90410584501692
H         0.94634739614629    7.96341759768116    9.20921915966220
H         0.82704173596146    7.10146558365551   10.76375539352814
C         0.78335974573694    2.73376087229972    8.83088824306432
H         0.82240357947957    1.70434966765448    8.47760138091628
H        -0.22478638343032    3.10592580324699    8.66408144168929
H         0.97482574432657    2.73421810916178    9.90467242628651
C         7.46746815009615    8.83257611568347   11.38740162127371
H         8.00661666287447    9.76873914917255   11.36605190691996
C         0.37899698270130    5.89722229476084    9.02744398228986
H        -0.23531110374159    5.18656553362942    9.59530771228419
C         3.16030355633503    2.84442228727800    8.04070525201066
H         3.04364836856097    1.87810499950069    7.55201348114570
H         3.53116366180684    2.67780229697684    9.05281407131981
H         3.90137579828519    3.42059030741483    7.48893646087187
C         4.84492958721854    5.04670265482565   14.08090970664588
H         5.00834338732274    4.65775364059505   15.08442469198179
H         3.77120523213893    5.10317977403864   13.90657036657706
H         5.25768158641931    6.05426018417726   14.02933589139380

