90
CSD_code = FAMSAQ | q = 0 | S = 0 | Stoichiometry = C37H46CuI2NP2Si | MND = 4
Cu        4.97498461192315    5.29967828527334    5.65941942174478
P         4.08344729998665    3.25818113118700    6.21364646232506
P         7.26240442727519    5.57502649733270    5.70337630951385
Si        6.28588291249067    4.22196257620590    8.64167988849403
N         3.71328991123189    6.68792728452061    5.16949449709733
H         5.34591018471328    5.21376724878801    8.10667679408139
I         0.42552382698239   10.65514936527746    8.67674264778771
I         0.82069414461868    8.44086447021641   -0.06720851956251
C         6.02360387958049    4.14635640979848   10.52681609454699
H         6.53261904738201    3.30187666997849   10.98007123259758
H         4.97096762852362    4.05668366637953   10.77335780962127
H         6.39029393287001    5.05102149349557   11.00072969443352
C         6.10174438320873    2.45015177644746    7.97586296237065
C         5.17120390886045    2.02232674255779    7.01854493649741
C         5.13196681512614    0.67783886287646    6.65419128539213
H         4.41921898816299    0.33221311747402    5.92167336174397
C         5.99611430474616   -0.24198428409251    7.21739413528180
H         5.94441310549286   -1.27984801747094    6.92250274563400
C         6.92641895460550    0.17415469201476    8.15361361679778
H         7.61339125246222   -0.53452264808900    8.59197414234747
C         6.96753493156702    1.50494026984364    8.52250677102141
H         7.69974476404918    1.82473469715773    9.25053546308716
C         8.04677138508283    4.84424243457125    8.30833731440379
C         8.41837060368025    5.50292611815763    7.12976472033044
C         9.69299761352627    6.05625054104139    7.02655851845385
H         9.98225300960953    6.60580109519932    6.14465964417737
C        10.61281377672005    5.92837393359213    8.05047281581991
H        11.59658884513563    6.36282718457052    7.94797728144602
C        10.26753166045874    5.24099421836481    9.20033750054590
H        10.98188935092537    5.12520351936979   10.00209881919247
C         8.99249892602909    4.72242707838917    9.32236699103062
H         8.72065688722295    4.21581578598930   10.23593081887931
C         2.69655520517153    3.76571012253126    8.58367177601449
H         1.76011681873274    3.74293924598740    9.13894355439846
H         3.00211769711418    4.80405433505946    8.48010122097198
H         3.45010013131882    3.23011125843363    9.15821651449763
C         2.50733327330464    3.11936776767681    7.21656690247769
H         1.77988471684301    3.71980638065809    6.65559998307376
C         1.98855801694929    1.69283475047329    7.36809990428049
H         1.07026797586408    1.70306150150691    7.95329817240616
H         2.71518045102420    1.07231598003802    7.88973452178160
H         1.76383763973038    1.23737442886400    6.40685984283575
C         2.41719580073418    3.29577472118737    4.00959970971038
H         2.29884320353298    3.06894273333083    2.95135083371571
H         2.61997173414832    4.36198210554736    4.10480394347216
H         1.47374333956268    3.07710010109206    4.50459894449935
C         3.56357265954265    2.47532511469311    4.59921915515801
H         3.22682579081934    1.44398472830875    4.73903143167025
C         4.77329939241638    2.48607575239864    3.66924422593681
H         4.49855531252956    2.12939532355470    2.67787751736883
H         5.56964230776297    1.85103967447568    4.05426601025849
H         5.15665247004032    3.50290671174854    3.57641434785690
C         6.98244045727098    8.26393380732171    6.07222679748354
H         7.12248467098443    9.29301246585687    5.74674033572016
H         7.46424041019620    8.13836694951487    7.04198361753472
H         5.91390790866626    8.08652065981778    6.19027280220843
C         7.56020095853674    7.29296030242028    5.04532923910905
H         8.63243425401892    7.47992386704766    4.92875571758827
C         6.87015684824937    7.45878664230929    3.69663837123161
H         6.98250007656739    8.48195698684858    3.34219427532368
H         5.80677493434616    7.25084265398465    3.79500686555275
H         7.28912514022382    6.79065613747871    2.94610444471619
C         9.50438582827317    4.84936397657189    3.98111541703760
H         9.81844559779268    4.15281679688782    3.20449388803372
H        10.23747804982434    4.80529823338706    4.78276808022578
H         9.50282489298354    5.84816364826285    3.55164799557791
C         8.12496823820930    4.44125236258988    4.48374489964146
H         7.43582559098031    4.41034680758942    3.62812218550000
C         8.17590613563332    3.05369802119403    5.11880638956233
H         8.47990655683576    2.30641946761008    4.38783182737790
H         7.19904931608735    2.77851885532477    5.51490837903529
H         8.88877496918156    3.03834930842320    5.94213873307900
C         3.07916882638246    7.50088036697821    6.06156812766394
C         3.28555590319542    7.61201522613500    7.43496025583655
H         4.03673517937069    7.01364423642613    7.93223904120111
C         2.52410443797298    8.50993774756624    8.14990950797751
H         2.67067488223412    8.60875147487954    9.21501580304020
C         1.56827497295079    9.29390833978255    7.50713040894350
C         1.34399469399632    9.22005987676288    6.15107387644432
H         0.60440114701651    9.83963677512067    5.66708615500032
C         2.10548250019848    8.31885353396379    5.41999247412658
C         2.16850347576992    7.96834826037756    4.03707877801012
C         1.49113486186392    8.39747203621693    2.90424264568838
H         0.72725797895609    9.15707250981948    2.97167370281808
C         1.82951303683244    7.82216098224291    1.70056386224609
C         2.81540309335145    6.84374902965111    1.59175558602912
H         3.04971667316783    6.42461001004268    0.62486656959302
C         3.49438517967026    6.40854255235335    2.70827695919417
H         4.26103671994912    5.65130637382159    2.62169924218277
C         3.17472639089394    6.96409776346382    3.94683205291152

