97
CSD_code = FAMVAS | q = 0 | S = 0 | Stoichiometry = C34H46N4NiO12 | MND = 6
Ni        1.82053076008089    0.00322864200918    6.22368721694030
O         3.31508964062540    0.47758307019541    4.48026400812238
O         2.78790691395112    2.60396328484369    4.10036070275887
O         5.25544383822806    5.05382612534856    0.66929852230705
H         5.51681349566197    5.83235678341796    0.15369088364691
O         6.48263600086060    3.99885968204160   -0.86243626953333
O         6.99016798325969   -0.89157336488577   -0.48652983755568
H         7.30306657661293   -1.77299514543412   -0.74229417250719
O         5.93768174776665   -2.04564741417051    1.10356182231695
N         3.41743068808787    0.58813100497281    7.43308234998019
H         4.01182128278663    0.86993079819496    6.64727812115301
N         1.11641886299706    1.80555346665414    6.11299982302102
H         1.70903831620352    2.18177750109469    5.32407945737798
C         3.35991800723573    1.71697466902062    8.37171278032458
C         2.72274072111027    2.90498026844354    7.62995835926376
H         2.80690378261225    3.77834444072321    8.27729647683628
H         3.29689055977692    3.11098627492825    6.72278961348325
C         1.25084291312394    2.74951913816072    7.22888086668438
H         0.66495569879142    2.36542344286542    8.06971120204495
C        -0.26170679973943    1.69680649057402    5.62836374101321
H        -0.63157646357952    2.65726332081990    5.25382965680216
H        -0.89510927413768    1.36694032112476    6.45927255284134
C         3.94961129833482   -0.67247212709542    7.94942542950366
H         3.31422622471662   -1.01951910311589    8.76705871930723
H         4.98003922287669   -0.57264885530883    8.31657083402571
C         4.77576496780040    2.14244672503459    8.79426903538628
H         5.37770197888898    2.39677452705893    7.92370332953931
H         5.27731379159787    1.35276048487417    9.34756140651207
H         4.72340197532148    3.01545866389684    9.43899513722563
C         2.53647069249123    1.33730935755305    9.60302878842294
H         1.65930041928706    0.77426803822261    9.29678301253322
H         2.21486727809811    2.23116354158085   10.13023533913526
H         3.11886645190610    0.73079766354609   10.29197812309428
C         0.72630638307142    4.14100493256085    6.84430519807187
H        -0.35456247685962    4.15138295323768    6.74027630227121
H         1.18145868653550    4.46152435213780    5.90954732045161
H         0.98321170202473    4.85966278658282    7.61751763090159
C         3.39187064917805    1.54826360092189    3.83537313594685
C         4.30646432689448    1.53871603190645    2.62202559515370
C         4.60475791757148    2.72226508884659    1.96148645411738
H         4.18079539893696    3.64669294980009    2.32341391300027
C         5.43887778407731    2.70742809866667    0.84695417935051
C         5.96524134721605    1.50483259066596    0.38347258116726
H         6.60493551132852    1.50838826538121   -0.48531989658720
C         5.66121554556057    0.31906536823465    1.04160835101586
C         4.83647742448138    0.34233561103123    2.16368784477610
H         4.60949671131155   -0.58025524840239    2.67727936421871
C         5.78827655642313    3.95030476281286    0.12274889696752
C         6.18850900493540   -0.98529158762249    0.58389966244341
O         0.32596801488547   -0.47111050555024    7.96711338202791
O         0.85322296503904   -2.59745889113301    8.34709802401655
O        -1.61425351473033   -5.04730215212208   11.77819731831644
H        -1.87553381931523   -5.82580134587415   12.29389404284937
O        -2.84148379036494   -3.99234190351356   13.30990162681580
O        -3.34914587874345    0.89805362172153   12.93389250152123
H        -3.66209919502780    1.77945018018719   13.18967526352560
O        -2.29696067110176    2.05211093538789   11.34357913013074
N         0.22362988510939   -0.58166450406208    5.01430129906957
H        -0.37076879082194   -0.86344599563779    5.80010599894196
N         2.52463350026253   -1.79909306667167    6.33437658917012
H         1.93202788222673   -2.17530317752280    7.12331336584031
C         0.28112206125452   -1.71051955734150    4.07568274451116
C         0.91829050465376   -2.89852344739295    4.81744780429522
H         0.83411294055675   -3.77189573345519    4.17012432268939
H         0.34414497611016   -3.10451264411771    5.72462231047541
C         2.39019329654822   -2.74307815918626    5.21851299544059
H         2.97608051307388   -2.35900587847680    4.37767158953567
C         3.90276601011462   -1.69033562280622    6.81899128902503
H         4.27264361288461   -2.65079334299293    7.19351237915941
H         4.53615588093953   -1.36046374109769    5.98807591685946
C        -0.30854206042889    0.67893494221180    4.49793784971672
H         0.32685909810555    1.02596899244318    3.68031450201863
H        -1.33896062178902    0.57911425809936    4.13076928160235
C        -1.13472986422150   -2.13598378275169    3.65313462808198
H        -1.73667461814572   -2.39027402361358    4.52370681321698
H        -1.63626239892644   -1.34630390204328    3.09981822938961
H        -1.08238249238728   -3.00901599335042    3.00843310328765
C         1.10457798901978   -1.33087456824320    2.84436607166378
H         1.98174841685545   -0.76783047849073    3.15060709555414
H         1.42618043152039   -2.22473575129043    2.31717056552718
H         0.52218556035015   -0.72436958811023    2.15540864449566
C         2.91471450812116   -4.13456107147157    5.60311925747351
H         3.99558483279809   -4.14495377578442    5.70713341803999
H         2.45956968488010   -4.45505109580451    6.53789061182784
H         2.65778533813971   -4.85323264877431    4.82992737762869
C         0.24921720697565   -1.54177272703823    8.61204070235800
C        -0.66537125991509   -1.53220874676366    9.82539268030882
C        -0.96358395265600   -2.71574265754485   10.48599676047164
H        -0.53957708324529   -3.64016061478800   10.12410775225907
C        -1.79777970248634   -2.70091316988358   11.60047282987811
C        -2.32423729494083   -1.49833049828474   12.06387577038085
H        -2.96402481414802   -1.50189147831239   12.93259990209877
C        -2.02025940807238   -0.31257168495069   11.40569981204017
C        -1.19548961461056   -0.33583882346694   10.28364424601776
H        -0.96848724094256    0.58674853733630    9.77006229434143
C        -2.14716137082269   -3.94378156038008   12.32469091641442
C        -2.54764767890116    0.99177456876453   11.86334542441016

