85
CSD_code = FAMVEV | q = 0 | S = 0 | Stoichiometry = C27H54N3Y | MND = 3
Y         7.31960836240979   13.92137724655989    4.12967637041199
N         7.55574671797580   15.84720082842465    3.12056441567279
N         7.22447728604712   12.07261064246250    2.96400539592105
N         7.15848263842216   13.84988761272257    6.30955708979854
C         8.62570756044279   16.77082920851467    3.49523995487890
C         8.07834592895286   18.16375437456874    3.88901007081331
H         7.50971135759777   18.05751797720164    4.81698807349937
H         8.91337108232945   18.84185259113598    4.07798810842000
C         7.16002539365215   18.74604323140037    2.82476579793262
H         7.72248586318915   18.97113094998600    1.91780563022655
H         6.72955922769202   19.68667674547518    3.18003577831299
C         6.04924250136835   17.74987227932532    2.52723629037932
H         5.43299281518375   17.64154711516533    3.42445847974408
H         5.41208509118946   18.12384143784463    1.72286449956237
C         6.59715816446381   16.35459140903231    2.14028784442320
C         9.72908611470298   16.93342058248894    2.41635717987261
H         9.43397293029861   17.60852783171186    1.62249975515410
H         9.96603998346873   15.96612785930872    1.97887663481940
H        10.63165441284425   17.33778984466196    2.87123593049265
C         9.35529562532750   16.21645693017047    4.73712037584858
H         9.90014339969303   15.29916715698335    4.48323061041091
H         8.64269379433613   16.01437857253474    5.53867290893679
H        10.07825027818067   16.94671642071077    5.10057879279199
C         5.38382619498995   15.40159508852296    2.08420077487106
H         5.70301260435089   14.41253568218505    1.74355753483620
H         4.64562279580045   15.78290245746073    1.37883235229952
H         4.90026458382868   15.32826550775465    3.06266384845686
C         7.14119642640583   16.40228650981478    0.68804321664116
H         7.69190195254720   15.49129894507153    0.46623213519011
H         7.79610729495348   17.24822126928241    0.52088382129243
H         6.31369120371413   16.48312341217032   -0.01432735406568
C         8.27546416143062   11.72537190633242    2.00846487011061
C         7.70861817373247   11.46083491728860    0.59300476724574
H         7.31936835235999   12.40361037804437    0.19883615732230
H         8.51406453780169   11.12480005743840   -0.06358288660434
C         6.58014825077119   10.44038887096583    0.60419898644394
H         6.15427848925209   10.34612748972530   -0.39881679365549
H         6.95781388124230    9.45732815825517    0.88795704720696
C         5.50672322292723   10.89859228451449    1.57994987272823
H         4.71300715120516   10.15134840575391    1.64685841460817
H         5.06769757944179   11.82551180752539    1.19978988741616
C         6.07332955790798   11.17187054159093    2.99440325606158
C         9.24844555201487   12.91637070072431    1.87887064548626
H         9.80295494277959   13.06110628959475    2.81404267222630
H         8.70345400984400   13.82760222002603    1.62680380729342
H         9.97116616178570   12.72196698417703    1.08647614614535
C         9.15836056523920   10.52557159618661    2.44341116318662
H         8.67879016708486    9.57190684894831    2.25971352456339
H         9.38949912417445   10.59875707100485    3.50374544147461
H        10.09255357134330   10.53532315346364    1.88460079371562
C         4.93853889026969   11.83390102166285    3.80517179389176
H         4.64506119802711   12.78788472873736    3.35770087986024
H         5.25940180207155   11.98240975160427    4.84012134931256
H         4.06103938462506   11.18750540615520    3.81019133981037
C         6.34511192389261    9.82128540976497    3.70792811847087
H         6.90640254624279    9.13309940258514    3.08835119031932
H         5.40195163680909    9.34122795941765    3.96229304176316
H         6.90235585119190    9.99099371617376    4.62620112261554
C         8.04219951733563   12.99909945933397    7.10560356997677
C         7.24889699846570   12.00813823510386    7.99082344685736
H         6.74307229157279   11.29383796059428    7.33528223015745
H         7.94247444231065   11.45367169811195    8.62668935586822
C         6.19988516242818   12.70703189849939    8.84317758549453
H         5.60725417082944   11.96455077395037    9.38525099066547
H         6.67728078285126   13.34475143350169    9.58817674239711
C         5.29396012659880   13.53172835555695    7.94089560178483
H         4.57035351411376   14.08881136635557    8.53993757997318
H         4.74001871697781   12.84859734910662    7.29043050516210
C         6.08863531768442   14.51712690630733    7.04967452304872
C         8.90806224537250   12.14643166319557    6.15420831163928
H         9.60948878876157   12.78293159333750    5.60141840064212
H         8.27619210069800   11.59610932670805    5.45483853789495
H         9.48978596653709   11.42450308694502    6.72732688677490
C         9.05508020195167   13.78095293526660    7.98380606280131
H         8.60952054309955   14.14977558214348    8.89955222666235
H         9.45482969012156   14.62573625935457    7.42759931031395
H         9.88081605503016   13.12839464033036    8.26183496320259
C         5.08185553971989   15.11928408520199    6.04600924556916
H         5.57706638426345   15.87719290932423    5.43255891770388
H         4.26378784896283   15.59788008544110    6.58416125350773
H         4.64967830007873   14.34028291229984    5.41117036243213
C         6.56702328381585   15.71642873102270    7.90969283377967
H         7.27171452988933   16.32194456809600    7.34472226853354
H         7.04533039154453   15.40072426726623    8.82829044154609
H         5.71677681715313   16.34023711933602    8.17903891875472

