59
CSD_code = FAMYID | q = 0 | S = 0 | Stoichiometry = C26H28Cl2P2Pd | MND = 4
P         5.60190508344331    2.90081042184103   18.97947352459913
P         8.62319643978647    2.56379066935803   18.23461283979461
Pd        7.48336736292858    2.72639458079527   20.23306704750357
C         7.39680008842067    2.77218134743103   16.91385817434827
C         7.95041737858045    3.41375943371586   15.84811651103443
C         9.38320089727093    3.62241136562535   15.96649438334929
C         9.92841003954288    3.19356287011514   17.13919865328255
C        11.31483408496890    3.15493067713570   17.56390977918530
C         8.99846495189220    0.76476914063963   18.26651242877951
H         9.86848982717000    0.63133763993338   18.91344622249085
H         9.20850309931439    0.38596826751671   17.26716629039084
H         8.14203651226072    0.24273251665399   18.70772034875310
C        10.13766771225086    4.30695388303671   14.87379327166359
H         9.58572896602868    5.17801056900460   14.52459470357152
H        10.27437811557306    3.63977046243147   14.02217262707239
H        11.11263004523829    4.63293092484433   15.22486228320697
C        11.60922002209041    3.35538800661947   18.91408798983494
H        10.80083936699797    3.54959716498046   19.60947029225850
C         7.18139240327913    3.91446262029235   14.67085449867054
H         7.35875571274651    4.98012180181851   14.52865877518881
H         6.11711556931965    3.75913665543106   14.82036415758142
H         7.49204919509711    3.40324088254966   13.75981797598358
C        12.35961407682905    2.86279437025215   16.68389748870571
H        12.14682440095428    2.63659516091756   15.65022097461426
C        12.91307408834268    3.30830598543854   19.36443626697458
H        13.12077109055619    3.46806379862946   20.41132494491197
C        13.66276797434361    2.81433058352655   17.14156842218030
H        14.46264785474026    2.58519880636735   16.45209671636403
C        13.94611289564187    3.04660544647920   18.47783140097772
H        14.96682467392925    3.00822320913500   18.82828845728231
C         6.03822328928785    2.47984179349742   17.27412892755785
C         5.02119131968310    1.81155919223310   16.67166401045246
C         3.85525561694464    1.62939863541050   17.52480881299189
C         3.98414446888156    2.09315786911525   18.80193125178788
C         3.09126800620027    1.94688045726616   19.93956199332476
C         3.12093248034794    2.90532185392317   20.95428715488917
H         3.79801531885078    3.74284026101830   20.86690457347370
C         2.31199567527776    2.78987263013580   22.06573251068126
H         2.35387098078944    3.54104211014168   22.83976533641143
C         1.46142952304505    1.70390485174920   22.19547544835890
H         0.82943391094497    1.60894103590982   23.06577577936153
C         1.44712191771987    0.72628651560210   21.21506323309774
H         0.81088691044324   -0.13989421497711   21.32581534360756
C         2.25501023897303    0.83967856936987   20.09934482306912
H         2.27080036838167    0.04071373226424   19.37555455235021
C         5.30540379972142    4.71131513754326   18.80011962063572
H         5.16319007986095    5.15854129825387   19.78450674259203
H         4.43883470695889    4.90110967232333   18.16811599284281
H         6.20495885531733    5.13803374950020   18.34841505054117
C         5.08505306936953    1.21444014854305   15.30382553479741
H         4.44715194802417    1.75993716907030   14.60736613718724
H         4.74340913940248    0.18084928500285   15.32675024679116
H         6.10580866131932    1.23893683365224   14.93177997169889
C         2.62178923853388    1.00368273892941   16.95871491282504
H         2.46429735488754    1.34843304931018   15.93816941606063
H         1.75015951121451    1.26319420136970   17.55356234374412
H         2.71428659837630   -0.08260322520356   16.93130451551451
Cl        9.33825334679821    2.67082482058974   21.49447016051501
Cl        6.21478373493641    2.56998056586216   22.07906815230377

