46
CSD_code = FANGUW | q = 0 | S = 0 | Stoichiometry = C19H15ClIrN4OPS4 | MND = 6
Ir        2.74759770066867    0.77803446104984    2.53923684654882
N         1.97892852887901    1.35745217103624    4.24565170463164
S         1.35702000212859    2.70314825337038    4.42483871828449
N         1.29247492674822    3.51415850049937    3.05047776270873
S         2.10638929579290    2.99646593498119    1.74901575960334
N         0.99753008494645    2.93227181397687    0.57268289902023
S        -0.35225297662724    2.11943811693194    0.45739675983473
N        -0.41286986625705    0.75243689659176    1.20400215201783
S         0.46781715555768   -0.13049727833374    2.17861508662043
Cl        4.58891879830170    2.34591719353864    2.98222421864596
C         3.40925485184301    0.32077185438038    0.85046007593000
O         3.77313804888438    0.15914628733262   -0.22316311139930
P         3.39592015896707   -1.17979373665518    3.75619152839234
C         3.97698386781642   -0.95600920071246    5.46477555093896
C         3.94611634783397   -2.02614530718940    6.35555670298772
C         4.43720731840747   -1.86723996406702    7.63756176863385
C         4.96871753919756   -0.64965654822550    8.03386452911509
C         5.01446810396454    0.40906088288289    7.14281184081597
C         4.52366440811789    0.25871480185892    5.85726408169189
C         4.76530968928728   -2.18957457700995    3.10452217172156
C         5.80277810371084   -1.50919832172446    2.47342686791445
C         6.90841127893300   -2.20150048533771    2.01558375630713
C         6.98322596752120   -3.57491611305658    2.18518335941696
C         5.95679888623996   -4.25253629082709    2.82276737288953
C         4.85093615354593   -3.56468028223072    3.28996364177139
C         1.97231808347603   -2.28951226302478    3.90307919840536
C         1.07437280073283   -2.12262764134494    4.95366368913279
C        -0.08040891260962   -2.88152721998667    5.00237870745086
C        -0.35419737155958   -3.79677968885580    3.99896564450810
C         0.52093793719864   -3.94208267500206    2.93410403168444
C         1.67488388525788   -3.18332735916306    2.87690040878597
H         3.53155352099470   -2.97615311441698    6.04827321057973
H         4.40692937308193   -2.69579841852027    8.33012934213376
H         5.34928194645059   -0.53019914990268    9.03760647482632
H         5.43477857380466    1.35573399707005    7.44760248382014
H         4.56060354625082    1.07914593210620    5.15666928037406
H         5.73065666543178   -0.43575693513025    2.35126771241927
H         7.71073904224168   -1.67137834439965    1.52510023371361
H         7.84291618116336   -4.11821277452735    1.82222442227685
H         6.01843580290111   -5.32231240191296    2.95904688358924
H         4.05395952083288   -4.09756717473793    3.78835638059505
H         1.28718600096684   -1.39312456053372    5.72224984236775
H        -0.77295516810513   -2.75406917704917    5.82121560768016
H        -1.25686719431302   -4.38784492380044    4.03918594463499
H         0.29723263507931   -4.64116969548515    2.14205073959221
H         2.35015875630840   -3.27430547444660    2.03671771638821

