39
CSD_code = FANJUA | q = 1 | S = 0 | Stoichiometry = C10H20Cl3N2O3Pt(1+) | MND = 6
Pt       10.56924401477844    7.04705093518966    5.30916689562868
Cl        8.63426382279508    5.88554266453496    5.52575535123396
Cl       11.08953512152982    6.31920420829243    7.48951745986838
Cl       10.16941355706905    7.73940269085267    3.06826136980206
N         9.61148649201100    8.68642111977002    6.00289594484704
O        11.30871259082784    9.32884408390555    7.33276922724220
N        11.49751601135796    5.37475250393788    4.58429490588327
C        10.10821428256089    9.51398874214432    6.85555388677679
C        12.69286609557296    4.99793674970957    4.86566625391107
C         9.17341410281264   10.63157126759603    7.21037788353256
H         9.66890449245145   11.60147536497741    7.22109189559182
H         8.76221059092573   10.44836817654210    8.20696551550441
C         8.25798117023958    9.06877642444888    5.61837513021460
H         7.54884752699222    8.39053981918122    6.10253494173295
H         8.13980054736535    8.97781864391043    4.53792858848620
C        10.80428536914593    4.35805886304964    3.80067047374921
H        10.27124198715546    4.83295494720389    2.97602592899407
H        10.07313265409504    3.85897394185176    4.44277788065975
C        13.03844712424673    3.63849248259191    4.34220475812982
H        13.00699251146209    2.92144614758695    5.16732893297222
H        14.03089397138450    3.59788716387678    3.89521481788782
C         8.10277130373329   10.51289430060072    6.11854768706002
H         7.10122039837027   10.70637241689978    6.49179148303437
H         8.31018841462576   11.21453065501178    5.31142337213608
O        12.43946979715683    8.37960448241972    4.97081984168121
O        13.49850346884487    5.79664388464409    5.53727043916807
C        11.82130127369719   10.21704148365404    8.31866259832940
H        12.76759289872421    9.78483219427674    8.63659733095691
H        11.15047899296251   10.28955692479589    9.17600165267753
H        11.99589132975777   11.20986987162684    7.89861577534063
C        14.74056415500208    5.28561281709703    6.01800238244836
H        15.15116502756982    6.06305262055837    6.65877369326724
H        15.42867983385799    5.08593261652168    5.19408405617119
H        14.59102215318821    4.37984008745943    6.60539925998248
C        11.90782131055815    3.39671590968063    3.33448123541560
H        11.56870192316700    2.36505797163474    3.32562238117321
H        12.23687419446745    3.65846406550150    2.32924200641157
H        13.24098874524221    7.88858069987619    5.19359976053609
H        12.41816074228953    8.55109005659268    4.01598700156602

