34
CSD_code = FANJEJ | q = 0 | S = 0 | Stoichiometry = C14H14CrO5 | MND = 7
Cr       -0.07810931555363    4.74581075129892    3.06494811554752
O        -2.58553444427086    4.91819502987252    1.40257189920033
O         1.06066943623088    7.03384629964858    1.47331339520572
O         2.28261953305967    3.74856193178450    4.61732559347759
O        -0.60832218854864    7.30104357674897    4.53580419191181
O        -0.94852176239591    3.25869397302685    5.57003788923946
C        -1.63347665375586    4.84929745596511    2.05253810479299
C         0.65266473910748    6.09665162771806    2.00063936635880
C         1.41625354533001    4.22109110646023    4.01378895198676
C        -0.44776448296806    6.26337816382359    4.05487936276173
C        -0.61741528271445    3.30622659611790    4.30102709471881
C        -1.14559228694723    4.44961973320881    6.30782352819161
C        -0.57535382462638    1.91384590778303    3.71897933025341
C        -1.76828247577686    1.89497288711624    2.72168134240778
C        -1.05698264998929    2.09257473779965    1.38461917814745
C        -0.24732107914936    3.39515322566021    1.38221243631066
C         0.93047949448340    3.13111163375415    2.18122672690587
C         0.65482566973299    1.76120159991320    2.77624503665827
C         0.06677856063624    1.05610328856322    1.54720370077243
C        -0.64931174417699    0.78829790021236    4.74746325114307
H        -1.89302891081441    5.08604951421307    5.82644557511786
H        -0.20799621365113    5.00288432365120    6.40560301208015
H        -1.49581838716208    4.14073912276474    7.29229011396044
H        -2.26979450180251    0.92660843936368    2.74384437149531
H        -2.50934018081405    2.66344132448563    2.94282180741772
H        -1.71016970957351    1.98006145766361    0.51935850925760
H        -0.11330404634435    3.84661478737044    0.39959146842410
H         1.91646066477282    3.28980652885230    1.74611945010315
H         1.50656898875350    1.28080494144180    3.25716261162235
H        -0.29471764548497    0.04556117854611    1.73723500223716
H         0.76266813352320    1.03621207154523    0.70930809222202
H        -1.58766391198781    0.83068291019919    5.29529825847748
H        -0.57648406438236   -0.17821522454037    4.25319646972805
H         0.16751699725968    0.87537119796715    5.46089676186319

