52
CSD_code = FANLIP | q = 0 | S = 0 | Stoichiometry = C21H25FeN3S2 | MND = 5
Fe       13.63001850004822    1.63220887510586    2.28427928115833
S        15.78825979178995    1.11131266958073    2.43995024335918
S        11.83402590560902    2.94530172484603    1.66260765923981
C        16.40849744222378    0.12165648789473    1.18445663907293
C        17.79370903660196   -0.08075476073649    1.13137157741663
C        18.36379608938984   -0.83635904986677    0.13711032908010
C        17.55803903057580   -1.43468786880102   -0.83298479529126
C        16.19749642112187   -1.26576946216216   -0.78293966213014
C        15.58267853992834   -0.48707064737330    0.21620249557196
C        14.15927152333543   -0.41791195181935    0.21586099735249
C        12.59826844828705    4.45532244266757    1.33128931800594
C        12.10615358135987    5.22414202357422    0.27172772860907
C        12.64115960214738    6.45756975635405   -0.02187338967127
C        13.67525771672174    6.97483030672130    0.75282812791274
C        14.14829366194623    6.24785627245491    1.82175485445635
C        13.63611134926395    4.98191825516292    2.13042221180988
C        14.12341622700461    4.30973881411969    3.30177335735390
C        13.40831316007376   -0.59695365095678    4.33975261771865
C        11.95578180091976   -0.08906572307054    0.81127533402334
C        11.46317177639481   -0.89833355487553    2.01208408146997
C        11.32967508498247   -0.05607766863228    3.27533223308463
C        12.19137645093472    1.40716809904662    4.89950896906914
C        13.33049805178520    2.03586536124469    5.70169018951925
C        14.47395685172408    2.60039920779972    4.84580304442085
N        13.35222071372588    0.25701310172949    0.97373152852345
N        12.58479974079806    0.49175113484622    3.81593444082556
N        14.01347728066195    3.05709637993561    3.55937942924172
H        18.40240923541055    0.38821350047861    1.88990307390806
H        19.43527220692802   -0.96962797164579    0.10579413570729
H        18.00453771115867   -2.03095894559077   -1.61475142151387
H        15.56997586277688   -1.73489158445384   -1.52894845720414
H        13.70788961532980   -1.07328404292899   -0.53516378368973
H        11.29487085428909    4.82113332402712   -0.31618615624302
H        12.25366341050933    7.02601744247102   -0.85484179305273
H        14.09464850663307    7.94297216557215    0.52419080568971
H        14.94231081228826    6.64704980394603    2.43818580748395
H        14.61164439888212    4.95984017680125    4.03303071953695
H        14.32927209357273   -0.20018193957345    4.75492352834514
H        13.68042184000375   -1.27052711173496    3.53153394006966
H        12.87337399929494   -1.16075966644912    5.11518163974799
H        11.36628315542303    0.82518504253933    0.72811133446937
H        11.80572585472019   -0.68333426894321   -0.09923092287821
H        10.47173649102000   -1.28940155616107    1.77675306060056
H        12.12763301851569   -1.74897358066362    2.17108501812794
H        10.84026670345080   -0.66518126035779    4.05243175430866
H        10.67983261894447    0.78952122712979    3.04008054520087
H        11.61210225426959    2.20831599565627    4.43431603834103
H        11.53675482670698    0.87731720630168    5.60994915370983
H        13.74770200036108    1.31756482593564    6.40828139654662
H        12.88366828021847    2.84464221657585    6.28377160114172
H        14.96624368099075    3.41135529781634    5.39820510128454
H        15.21733678894469    1.82022712846133    4.66706503915919

