102
CSD_code = FANMEP | q = 1 | S = 0 | Stoichiometry = C54H42AsClNiP3(1+) | MND = 5
As        4.18564770097219   12.61644474557682    5.36927520382314
Ni        4.21843402521127   14.14274807263385    3.77500620972334
Cl        4.24988363250814   15.59365692582943    2.25487563764500
P         6.47032688151693   13.90363111008163    3.78921095164259
P         3.23154344019448   15.52405998281181    5.27240567529545
P         2.95054184223466   12.70637595276384    2.56970295686308
C         2.99746057953659   11.15433842882204    4.88157521455835
C         1.30218356656212   13.39601454177943    2.22754588050998
C         6.96566003183385   12.51897901518921    4.89380965802998
C         3.55918086336901   13.39612693464180    7.03864647368019
C         5.97107848245284   11.89718810629203    5.65481765281675
C         1.58293196323655   16.22911069569870    4.99285123144621
C         4.30065253550786   16.93901906820384    5.67892802907733
C         5.48396494599746   16.64947525513087    6.35640924734881
H         5.70795317585726   15.62200243636944    6.63369003105186
C         3.15529084424279   14.73018334864045    6.92952144190844
C         7.08932096348007   13.24276492854876    2.21085420457843
C         1.50288723592985   10.34325671402724    3.17386970575726
H         1.04911649728235   10.45354030554047    2.19844040552337
C         6.28028961887841   10.80638911626815    6.45735409397193
H         5.50332614477486   10.31298619746440    7.03126907343368
C        -0.70870581259756   16.62723699951657    5.58227879457709
H        -1.52784503700590   16.50752450675606    6.27610383782687
C         0.52060922283660   16.06329866861591    5.87496575596877
H         0.64331738074201   15.49293959473852    6.78480660192248
C         8.50676219514737   15.23171162998874    5.23608275013973
H         8.60819187502856   14.34437281197401    5.84482573624153
C         2.80121656286832   14.79823730648563    9.30324847440092
H         2.51676904467282   15.34431290771805   10.18974889386850
C         2.79380892294993   15.43323389069032    8.07371717001379
H         2.52420454198861   16.47772388013223    7.99701453872473
C         2.45355378932587   11.26533574405030    3.59834997931048
C         7.57750298380578   15.28006486822095    4.20262613965624
C         1.13045485312053    9.30438765793903    4.00876820477592
H         0.39460776979872    8.58796329634010    3.67684050146012
C         2.61065196655120   10.11681320262445    5.72026583471594
H         3.01863652581646   10.04377419963308    6.72257632543726
C         8.26496749214383   12.02391387417587    4.92734558820229
H         9.02592389567563   12.47616330882461    4.30607239823391
C         1.68657398774049    9.18589424574338    5.27413136115050
H         1.38544333063085    8.37560583296259    5.92076964809134
C         3.57729697275102   12.76738721707488    8.27714150814903
H         3.91057048580546   11.73877289110892    8.36254283076062
C         7.86305028358552   13.97507036643177    1.32042584335639
H         8.16567093471281   14.98275819519348    1.56358742493271
C         6.08460212163066   18.96573679924995    6.30003306473930
H         6.77729285690873   19.75652112727063    6.54381741714205
C         6.36424041021772   17.66185047645736    6.67881763960673
H         7.27107549284555   17.43575526123162    7.21868134310438
C         4.45462032078405   11.09350431104742   -1.45165761494971
H         4.80750363479108   10.73424327305930   -2.40631824239865
C         7.58449226870328   10.34135667869813    6.50560784412880
H         7.83037449311906    9.49555502679205    7.12982908835664
C         3.52002858499484   12.00811378633651    0.99500323575821
C         6.69629228306661   11.94557398936193    1.88525816470909
H         6.07310321510278   11.38268890732266    2.57650826352183
C        -0.77706207949042   14.15513869523460    3.16630718462897
H        -1.41712899107917   14.30446575954913    4.02241534601145
C         1.38543158896600   16.91130873737761    3.79228241808766
H         2.19533738477757   16.98531750884475    3.07929191889013
C         8.21411354659676   17.55255158836411    3.73840166480378
H         8.08887633496085   18.45872021510685    3.16550832718373
C        -1.20934577472467   14.51829506534720    1.90016614715282
H        -2.18827499205298   14.95382568405636    1.77092297596293
C         4.02317728742958   18.24512335118070    5.29837473307812
H         3.11168195183514   18.47496344883512    4.76694737805848
C         3.18409722880941   13.46879784987289    9.40536018070046
H         3.19325950503207   12.98367461390592   10.36973785430265
C         8.57003861641330   10.94452555485192    5.73793836248145
H         9.57931138814748   10.56282090553010    5.76439246119418
C         0.47925235750151   13.60952732554425    3.33215720889065
H         0.83144239333442   13.34025719456340    4.32542533406641
C         7.41608616072830   16.45664613546771    3.47101447634549
H         6.65064775033801   16.51181251719291    2.70887367515522
C         7.09935691376123   11.37651679534956    0.69459017411417
H         6.80662199116317   10.36591875349112    0.45387193476906
C         9.30463594049778   16.33279979426669    5.49284534896680
H        10.03472208966344   16.28755169728597    6.28758004428100
C         3.61891876826270   10.64178685345063    0.75538795434153
H         3.34815493506892    9.92721349613013    1.51971451076155
C         0.15247678178317   17.46618338694132    3.50643743694422
H         0.00652335299492   17.99742609195507    2.57816032409289
C         0.86831758632613   13.76158231494049    0.96039090024392
H         1.50359089049226   13.60456298864115    0.10138244349751
C        -0.38674463017254   14.32425879396277    0.80382091268263
H        -0.72308840664068   14.60943668152138   -0.18151595031113
C         9.16797169096935   17.48827410490106    4.74131196213874
H         9.79604642639088   18.34175066248100    4.94636160202084
C         7.87325823734887   12.10858324558100   -0.19254936233771
H         8.18179535830001   11.66706744964652   -1.12770337395577
C         4.07530457684089   10.19177634495552   -0.47097493792394
H         4.13825728012712    9.12991962511220   -0.65853100146473
C        -0.89282544962443   17.33622075469536    4.40659617463392
H        -1.85415764686300   17.77513631309089    4.18706751062709
C         8.24910009884414   13.40374614223540    0.11996964554822
H         8.84973649592528   13.97432217092295   -0.57218882464202
C         4.91989863334251   19.25286143723059    5.60911541118806
H         4.70412406846834   20.26783468560572    5.31140215391297
C         3.93680953214132   12.91414472528069    0.01977872288661
H         3.91617944865150   13.97472420045767    0.23112916897159
C         4.39635239457765   12.45480380159774   -1.19978289221097
H         4.71278616206321   13.16013592140143   -1.95306096509433

