71
CSD_code = FANPEQ | q = 0 | S = 0 | Stoichiometry = C22H44BO2RhSi | MND = 9
Rh        8.45869987443062   -2.44009934145676    6.19752687256922
H         7.17737504862545   -2.12029563772065    5.44599392853408
H         9.10743217022736   -3.79977935098454    6.01245389423875
Si        6.88094463604315   -3.87445018776820    7.28416195879165
O         9.18212574056444   -2.30943763260760    3.32641033710355
O         7.90432866272950   -4.14673988574595    3.65007184255643
B         8.48193071495146   -3.06151706182893    4.23887639588230
C         8.43248545058010   -0.40125629946419    7.11005102224612
C         9.33476416217039   -0.34408269774043    5.97882770480161
C        10.39940059849917   -1.23439766043412    6.22748319855450
C        10.16712515745539   -1.85815786782787    7.51273725444606
C         9.01264421674226   -1.25394170216325    8.09455024551472
C         7.33474363785746    0.58549372072245    7.38566450459955
H         7.75420094626285    1.46774206859184    7.87525954499282
H         6.57928689555326    0.15965370202720    8.04182435635621
H         6.84726579481238    0.90618900108033    6.46766097333870
C         9.27336030235620    0.62742532018704    4.84012341893391
H         9.99337235637528    1.43218834163292    5.00589580224539
H         8.28307769070967    1.06697330165889    4.74871099373363
H         9.51907360964095    0.13203799558365    3.90307050341136
C        11.63750105449921   -1.35212930570381    5.39295026616297
H        12.30141442092813   -0.50903976829089    5.59909506401090
H        11.38377638157593   -1.33992555437100    4.33524005599205
H        12.17586978650810   -2.27206688517014    5.60891951162526
C        11.18732331524780   -2.65333380290661    8.27626879149472
H        11.83446864714328   -1.97302973144745    8.83499409290959
H        11.81105543460251   -3.24357191381701    7.60857813958157
H        10.71203843056966   -3.32936351041676    8.98366078174472
C         8.63291828124906   -1.29982785755417    9.54224135104555
H         9.08674891602521   -0.44829879154160   10.05587212002179
H         8.99059629103813   -2.20855628132686   10.01886638530416
H         7.55645537858058   -1.23901674480871    9.68051176975708
C         9.21072033937293   -2.99858581571139    2.07244759554976
C         8.06132806537561   -4.05621989504095    2.23074688888770
C         9.01231151724229   -1.99379270605395    0.93999092990266
H         8.11990076627606   -1.39706308939846    1.09863565830525
H         8.93744620357931   -2.51180412871116   -0.01231890770872
H         9.86691295816618   -1.32181475932240    0.90627466158893
C        10.59801778406936   -3.63918406380559    1.94419723166505
H        10.76978485393979   -4.32255778156169    2.77190874563641
H        11.35146233338636   -2.85558688649364    1.99094523732040
H        10.70071095950104   -4.16814591868873    1.00143982185233
C         6.72062361760493   -3.57223187068147    1.66552406409067
H         6.46637188921893   -2.60260389204025    2.08546336564540
H         5.94949048504187   -4.27814748917488    1.96393699255702
H         6.74703010525504   -3.51170587775633    0.58144945672581
C         8.37356589626484   -5.44008675662804    1.66725040347406
H         9.22398813499708   -5.88578514211448    2.17232101262085
H         8.57424637034524   -5.37712274581586    0.60087775542043
H         7.51296629727773   -6.08422816027584    1.82722369785901
C         6.06280796650317   -5.17154761183505    6.09878332615424
H         5.55327721111069   -4.63912426549636    5.29749082661079
H         6.84881061634390   -5.74577106164666    5.61225730774381
C         5.08145041501461   -6.12261381402755    6.77574795270281
H         4.65729991400181   -6.81762738641530    6.05172638260078
H         4.26336788003223   -5.57324356423742    7.23442709613519
H         5.57623015236062   -6.70329918053336    7.54966473160579
C         5.40065563534230   -2.91820816160421    8.12288666041436
H         4.81936117768474   -3.63316385311172    8.70579001672387
H         5.77530503164836   -2.18433574093845    8.83601897983382
C         4.47731238165253   -2.21843896565598    7.13540940149681
H         3.67712822142368   -1.68936124800852    7.65312366537809
H         4.02742247639019   -2.93974261378857    6.45908848194134
H         5.03410894583462   -1.50087403252209    6.53723226122493
C         7.63902627988152   -4.89099227021203    8.76582516006401
H         8.07544737935230   -4.21881444064935    9.50374319398341
H         6.82625781829106   -5.41043859770925    9.27421008863986
C         8.68790109336679   -5.90978674316324    8.34209215477747
H         9.08344437800091   -6.44779752676234    9.20371090335221
H         9.51375982613942   -5.41679961194693    7.83447891721399
H         8.25934261817584   -6.63344030884326    7.65452479750088

