97
CSD_code = FANQOB | q = 0 | S = 0 | Stoichiometry = C42H48Cl2N4Pd | MND = 4
Pd       15.49258099971436    9.71237930014521   14.79113081480268
Cl       17.77944724605283    9.76367716675727   14.51567354486577
Cl       13.24789508610183    9.61415181974855   15.25531536117921
N        15.92314061086530    7.66307761524132   12.62282420577823
C        15.43015537342127    7.95001157572648   13.84211753944144
N        14.98378640344071    6.78130618265121   14.34189145835521
C        15.19497756076683    5.76864587852049   13.43959762337407
H        14.93172892610614    4.75180595149138   13.64914221544176
C        15.78715824811017    6.32331804242571   12.35815105828876
H        16.09497878065229    5.88774658799630   11.42947652626198
C        16.49853892175800    8.60691591812233   11.73014663525434
C        17.84722618504228    8.49040286749093   11.38339213805296
C        18.37260093175388    9.39242725656700   10.47343756381381
H        19.41723587656152    9.32033315881835   10.20675877526948
C        17.59531480662278   10.39391693391925    9.90760825178206
C        16.26762670656952   10.49831204832493   10.28634203300595
H        15.64967506453782   11.27574673266200    9.86181497780879
C        15.70146138672379    9.62584883585447   11.20572189197199
C        18.72840832583366    7.47369174355450   12.04031432628048
H        18.75237174348339    7.68123486754570   13.11052490855630
H        19.74132521552221    7.54303067196309   11.65335766921569
H        18.36853244125838    6.45688468624798   11.89483456134990
C        18.20091517032500   11.35495093714913    8.92899289363130
H        18.90861443399860   12.00943313052458    9.43783667943415
H        17.43632157006077   11.97047318458342    8.46104725395581
H        18.74415321145223   10.81995384065798    8.15186430794639
C        14.27487573687781    9.79640064060085   11.63063756796542
H        13.73994267896286    8.84638242945744   11.62435768276265
H        13.75990196809335   10.49595647419073   10.97758090589255
H        14.23721024815238   10.20125669973689   12.65771841424812
C        14.29896641201801    6.61615335122858   15.57780267245621
C        12.94855166885243    6.25842952458953   15.55216193180512
C        12.29630022911957    6.05143938933868   16.75602362780783
H        11.25007565097723    5.78100602770288   16.74586385610675
C        12.94632651555111    6.20895137410105   17.97179257514604
C        14.27393079689708    6.60458464354569   17.96841721645649
H        14.78426789993406    6.76098011954800   18.90853575300547
C        14.96802038451928    6.81878921960746   16.78551035178159
C        12.19692185110405    6.18596917700860   14.25752828172197
H        12.26383625716013    7.15267436232657   13.75767750566434
H        11.14854105601613    5.96769124831562   14.44189626916235
H        12.59740410629179    5.42521416571639   13.58901964289161
C        12.21075126862584    6.00150125439888   19.26115966457142
H        12.89475297089231    5.72064646231081   20.05887924670210
H        11.45259268763900    5.22868019320554   19.15520287661565
H        11.71084624774570    6.92574518739676   19.55241177590145
C        16.38616808691916    7.30038341874134   16.82086995099360
H        17.00075057989411    6.80621490950432   16.06751834408384
H        16.82616103610467    7.13192973314086   17.80120704312031
H        16.40482113537538    8.38969286202069   16.61650723252427
N        15.09301945887876   12.65569226145672   15.37829771296190
C        15.30602216841954   13.59112909342675   16.30544525610874
H        15.03881270942332   14.62662005136381   16.23075842370531
N        15.92900605668021   13.02919969257177   17.33588058767556
C        16.10767572048252   11.70071787810399   17.04275344806276
H        16.59672173267882   11.04515531790550   17.73906163921973
C        15.58701938384884   11.44124117411957   15.79965055041762
C        14.42815423852565   12.89281793875155   14.14087167565440
C        13.04082034661146   13.05692865837649   14.13341538025367
C        12.42130253500374   13.32192355688512   12.92266921613447
H        11.34724156096677   13.43525626664465   12.89706280795559
C        13.14630540414137   13.44500490574042   11.74470462872813
C        14.52181102484598   13.28400413748420   11.78707874560534
H        15.10082783617449   13.38725582267912   10.88106212849454
C        15.18412956849769   12.99393254641790   12.97213483953552
C        12.24231123328097   12.89615338227951   15.38740740155853
H        12.31602686015332   11.85601412944878   15.71271456191365
H        11.19666613052071   13.12965995580633   15.20870451724186
H        12.61264807058612   13.53482410589064   16.18841490990642
C        12.43944001500235   13.73574260903721   10.45511853771586
H        11.78872209030702   12.90330466062313   10.18840464146760
H        13.14896953150239   13.89354568519292    9.64658241338745
H        11.81692121160056   14.62391273136150   10.55173294353736
C        16.66452295011207   12.78881775734487   12.99671476744729
H        17.14207302632714   13.42746888047748   13.74007845370016
H        17.10031875970828   12.99398918356664   12.02322418167410
H        16.89167512877744   11.74947868883131   13.25769835847145
C        16.35081278757191   13.67274779795935   18.52721163405957
C        17.66493004969314   14.13227439583239   18.61594116668757
C        18.06708982850441   14.73560002735135   19.79692614205771
H        19.08120805896696   15.09758429263185   19.88352419100660
C        17.19775125835539   14.88016368409125   20.87057169256036
C        15.89899021538156   14.40622764718716   20.75132052655210
H        15.21680287077214   14.50858659048813   21.58270883983661
C        15.45507360973530   13.79567657042720   19.58772042467853
C        18.59816442857300   13.97922846661050   17.45458124319411
H        18.62092352358315   12.94839444523249   17.10301945533266
H        19.60601445211625   14.27513352124449   17.73148551399433
H        18.27318436025354   14.60362656511211   16.62145375536732
C        17.65458816051285   15.55422857584487   22.12740299564364
H        18.69024747629568   15.30401080792413   22.34546990180510
H        17.03477656054950   15.26504800686607   22.97219152185180
H        17.58869214747546   16.63653592066162   22.01249677944794
C        14.05261196564200   13.28455881719178   19.45948008149006
H        13.46635651149991   13.94085555652275   18.81515746151713
H        13.56963278813570   13.24537760257762   20.43185656402818
H        14.03639549283296   12.28839983404734   19.01964177585228

