97
CSD_code = FANQIV | q = 0 | S = 0 | Stoichiometry = C42H48Cl2N4Pd | MND = 4
Pd       -4.52517050427559    8.92437300828473   13.53395281975814
Cl       -4.52528403534865   11.22058564203004   13.53247034416381
Cl       -4.52555877845240    6.62843397627117   13.53425033255130
N        -5.45473071093748    8.40924728429573   16.35316593441016
C        -4.51668264979374    8.92362786946970   15.53666365790128
N        -3.57251253418606    9.43694788347349   16.34669264536675
C        -3.91548296290890    9.24637897923161   17.66120868477097
H        -3.28814565689756    9.56855329542993   18.46737413632544
C        -5.10175450748381    8.59809946555915   17.66529963064104
H        -5.72314090214613    8.27508661678062   18.47571782582439
C        -6.65072299585458    7.75537461752468   15.94614892555812
C        -7.68990687307880    8.51376895617513   15.40621034172004
C        -8.87760886249653    7.87043984538810   15.08748172305471
H        -9.69434188782033    8.45395515975100   14.68818198966969
C        -9.03548503254432    6.50653664642280   15.27278314355403
C        -7.97505443754640    5.77527323446434   15.79105407526621
H        -8.08338623860634    4.70846194414144   15.92339980976188
C        -6.77771889541525    6.37813493533735   16.14057641118559
C        -7.52125837501809    9.98178692391215   15.16799886413688
H        -7.13760047909895   10.48592238184045   16.05529896278906
H        -8.46424832086059   10.43929005613691   14.88247492813039
H        -6.80475841832208   10.14618845141823   14.35161311583421
C       -10.31590171284350    5.81831572107029   14.90692114942319
H       -10.15749127433259    5.16643095216248   14.04794223587301
H       -11.08970061378959    6.53943832942202   14.65515508968365
H       -10.66802968501736    5.20034626724040   15.73112444916618
C        -5.63121054194153    5.56476433340396   16.65432887960587
H        -5.23895076359244    5.95861749066859   17.59055375396568
H        -4.83147511266732    5.58513994218065   15.91286405567782
H        -5.93326230045664    4.53250968459034   16.80743112099502
C        -2.37977478621931   10.09158416873150   15.93132220628126
C        -2.25278762885925   11.46904353937750   16.12337830176220
C        -1.05825199311294   12.07264491376004   15.76517493715477
H        -0.95022966284771   13.13972799586533   15.89553103684875
C        -0.00058946470248   11.34169527121025   15.24121626009677
C        -0.15832384825485    9.97720074344487   15.05885793883858
H         0.65674704211856    9.39411118041314   14.65553770282047
C        -1.34332962873019    9.33327128268199   15.38583106434754
C        -3.39636585324909   12.28197130724988   16.64421442129187
H        -3.78555053787399   11.88531393356430   17.58057015043101
H        -4.19888209910904   12.26469146167677   15.90559255287341
H        -3.09270176872855   13.31347613402299   16.79944576577605
C         1.27596040092703   12.03004435272190   14.86233192942568
H         2.06538413895434   11.30906583383388   14.66414853574023
H         1.60252777240092   12.69889686719410   15.65645936980810
H         1.12356986463777   12.63000746000871   13.96500758824178
C        -1.51285120833769    7.86476449122853   15.15111181231991
H        -1.88638260593910    7.36151186448425   16.04322751653261
H        -0.57249051463918    7.40781977957817   14.85621631840218
H        -2.23793653414796    7.69848433611956   14.34281162956066
N        -3.59622533868429    8.40937425342512   10.71466785910423
C        -4.53414740242977    8.92396058918353   11.53119576829084
N        -5.47844412991972    9.43705364324870   10.72114877511783
C        -5.13550264004910    9.24644112522292    9.40662394017185
H        -5.76288519994796    9.56851819183274    8.60045501683311
C        -3.94923010415757    8.59817320480067    9.40253475602557
H        -3.32788778693569    8.27507487536176    8.59211344891718
C        -2.40026444155333    7.75541853017126   11.12165903938718
C        -1.36106049564308    8.51379681998149   11.66155941553578
C        -0.17337003329866    7.87044577430021   11.98029740987341
H         0.64337169915937    8.45394823228520   12.37959524871691
C        -0.01551708026468    6.50653653521276   11.79501443614012
C        -1.07596683279929    5.77528233881464   11.27676541370833
H        -0.96763539172098    4.70847168887564   11.14439516530914
C        -2.27330241376737    6.37816042902768   10.92725997220611
C        -1.52975244643060    9.98180880371273   11.89981062662657
H        -1.91341614613811   10.48593290970930   11.01250687488138
H        -0.58676031162895   10.43932016419742   12.18531748440084
H        -2.24626759314192   10.14618654539414   12.71620286119020
C         1.26489890415890    5.81830303040147   12.16086958822600
H         1.10648774874801    5.16640248557437   13.01983807788728
H         2.03869652766774    6.53942287228088   12.41265292971982
H         1.61703520632780    5.20034806607014   11.33665704875972
C        -3.41979434856034    5.56478396715937   10.41348032947554
H        -3.81203570257368    5.95862893728679    9.47724891076699
H        -4.21954238230390    5.58516567926154   11.15492469516326
H        -3.11774949829185    4.53252409418316   10.26039735605167
C        -6.67122170772060   10.09160031536591   11.13651642158639
C        -6.79822931983218   11.46904090922936   10.94444096748440
C        -7.99276763202594   12.07263333903134   11.30263138456372
H        -8.10078280164375   13.13971877104652   11.17229886223077
C        -9.05041786040228   11.34167533609777   11.82659674161400
C        -8.89267040052807    9.97718259037636   12.00896457336910
H        -9.70774101211150    9.39408288852414   12.41226967685485
C        -7.70765296197964    9.33326781725112   11.68201377876450
C        -5.65458460042079   12.28194870973074   10.42371185539989
H        -5.26538483313277   11.88531857293121    9.48734441217541
H        -4.85210025396257   12.26460223586280   11.16238744406705
H        -5.95821787333723   13.31346445946685   10.26848818021395
C       -10.32696113085566   12.03002191266901   12.20548849636217
H       -11.11638798125919   11.30904492713080   12.40365730889780
H       -10.65351559277733   12.69888914531838   11.41136973091599
H       -10.17456369456903   12.62996979867013   13.10282076085316
C        -7.53815739663499    7.86475104582348   11.91667843997912
H        -7.16457492621208    7.36151449316574   11.02457658166599
H        -8.47853292153396    7.40780156519894   12.21150977384512
H        -6.81313248543009    7.69843056888036   12.72501608533867

