75
CSD_code = FANQIX | q = 0 | S = 0 | Stoichiometry = C30H40Cl2P2Pt | MND = 4
Pt        7.77285818890132    6.77269753459359    9.64343921847138
P         6.64106957264216    4.87553435062137    8.91881276814048
Cl        9.24802483064574    8.46839668783514   10.16990355171432
C         6.56154425355146    8.28134802293555    7.44803871132261
P         6.09197897585625    8.13883053903989   10.45752065215853
Cl        9.59915724345260    5.62966926961274    8.78890441788189
C         7.06562079728802    9.57342862820859    7.59329352441957
H         6.40342015366656   10.34827798061871    7.95233873494991
C         8.66683176218687    7.63373136065249    6.46868937814257
H         9.28187636661679    6.87551922028745    6.00656131665247
C         9.17900969524168    8.89595360267833    6.70186177324962
H        10.20401682991926    9.11581266659100    6.44586976103872
C         8.36505081980325    9.87979181389995    7.23518847907453
H         8.74071570400854   10.88201384936539    7.37570027346709
C         7.35996621657241    7.30355200154233    6.83273449298755
C         6.82554470010548    6.01482713877917    6.33355312175062
C         6.48517853761285    4.89934456026698    7.09999565650544
C         6.05005830163872    3.74356910680168    6.44625970992139
H         5.80058773902246    2.86827808552153    7.02492376685343
C         5.93509105670727    3.68752644171778    5.07257327963531
H         5.59591659688395    2.77976950430340    4.59562762019033
C         6.26872193451014    4.79664861360987    4.31264534271768
H         6.19052743764405    4.76574279091496    3.23610053543195
C         6.71520618725758    5.93915722214513    4.94292968805019
H         6.99038471155273    6.80497934044972    4.35660248904783
C         5.15703097291945    8.03927494743986    7.83910109061495
C         4.76607153567827    8.12679975251789    9.18550279270758
C         3.41471462327140    7.99745515564306    9.49561526240640
H         3.08659093655724    8.05702429333505   10.52050338930202
C         2.47248097577444    7.77439686059599    8.50718575769383
H         1.42964132158604    7.68181369068551    8.77266773807438
C         2.86879325015377    7.65322399438637    7.18671210730719
H         2.13914076892274    7.45817889211433    6.41517243743337
C         4.20488049053842    7.79217208860899    6.85794798566839
H         4.52113381146139    7.71612796462398    5.82778743164421
C         4.83620218310934    4.69059012625224    9.46136591561985
H         4.50330873365639    5.73246040209448    9.52429025890512
C         7.36035832227755    3.18275459275424    9.29791336327812
H         6.50349976025855    2.49495472609147    9.31560908316043
C         3.87104785536225    3.97987461873830    8.51876404757143
H         3.87773299771938    4.42368639449448    7.52677319172703
H         2.86221193473321    4.07490872345989    8.92013416268665
H         4.09330787040230    2.91841773570680    8.43863622027872
C         4.72973437111229    4.06853975052477   10.85267718044971
H         4.90800688300069    2.99611633010891   10.81594530744350
H         3.72586944470586    4.22132946509299   11.24872924875985
H         5.44241719276777    4.51520767771605   11.54003495209730
C         8.00781687258366    3.22802536283632   10.68245623385212
H         8.46878571330147    2.26786769821410   10.90773333365552
H         7.29272920172868    3.45312297612984   11.46852460832264
H         8.78733582366845    3.98888120101108   10.69015254457675
C         8.38617326710222    2.66136015339459    8.29375301819027
H         8.00906463023686    2.64560784456278    7.27517869950631
H         8.66388670252906    1.64511498915257    8.57125138422279
H         9.27572450728334    3.28299520712247    8.31648982571705
C         6.44857194061714    9.94585041541758   10.77767136253597
H         7.14717552125756   10.19268072885309    9.97104274308609
C         5.31285141424524    7.41190290920368   11.99747837026356
H         4.70743791813304    6.58837254565111   11.60293560899752
C         7.20580225217279   10.18685447220090   12.08052935025566
H         8.05307264357244    9.50880773325934   12.14537903455144
H         6.57481700214970   10.07277590547275   12.95659033090548
H         7.59323394568808   11.20444069080476   12.07966661319637
C         5.21487307465489   10.83743435735796   10.66542681004919
H         5.52722469889873   11.88088356629848   10.66500434128700
H         4.54068133294353   10.69379790743639   11.50523753848371
H         4.66424268329788   10.64554052631382    9.74552504414238
C         4.40724975220207    8.26847511128132   12.88160596532275
H         3.63754237230929    8.78859755729529   12.31845772505016
H         4.97493551918475    9.00383039530412   13.44274259834893
H         3.91164593248672    7.61885209172382   13.60345196125997
C         6.44872903204825    6.81615178655703   12.83337765654094
H         7.15609236347588    6.27856595584692   12.19191558725325
H         6.05652072530410    6.12679802381865   13.58011484239070
H         6.99984830767449    7.59850337150945   13.34856967942068

