69
CSD_code = FANSUI | q = 0 | S = 0 | Stoichiometry = C30H32I2O2P2Pd | MND = 4
Pd        4.65766041747856    6.07197252984397    2.16625029200314
P         6.27357042898067    4.78789932538139    1.26662534537028
C         7.26408444252022    3.75696582140359    2.44903914544448
C         7.59081518758133    4.60444698669372    3.68369651037045
O         7.16597353060013    5.93306255007109    3.43804179795628
C         7.23757583231879    6.76544209293753    4.57206156495119
C         6.80225835628389    8.17298002127210    4.17614221291149
O         5.45698877521397    8.12123005579467    3.76402157631655
C         4.93412298806135    9.36357302564207    3.32181485324756
C         3.43382376686572    9.17860229436423    3.06902444492851
P         3.04712656436443    7.36330735046136    3.05836804409162
I         3.97049071116882    4.12800758037056    3.76037860967920
I         4.64276744193006    7.64708199451088    0.08419158304316
C         2.39268618575860    7.12896493332213    4.74014924651825
C         3.04245826574192    7.68277471920160    5.83840028967507
C         2.56333397373663    7.45695015497079    7.11538149501392
C         1.43920660779550    6.67145130730259    7.30781465399301
C         0.79916979704139    6.10334529912339    6.21905220738775
C         1.27474309520143    6.32428167571627    4.94051804410360
C         1.55061453666512    7.21619345179361    2.04385911946703
C         0.48777248216630    8.10719274596624    2.14387927791940
C        -0.62929799532612    7.93119569095664    1.34927638168404
C        -0.69471563165441    6.86647959065670    0.46374049856755
C         0.35707008752028    5.97052773874835    0.36939091399439
C         1.47938381911353    6.14462421424095    1.15777417128996
C         5.54506832239097    3.60972882401540    0.09243442005355
C         5.32113544666206    4.05256896138086   -1.21193587789231
C         4.64392676568847    3.25308118389901   -2.11235696227731
C         4.17376691398493    2.00970953417248   -1.72033095679732
C         4.37685315992553    1.57256653085095   -0.42219746146534
C         5.05200840411001    2.36869968035631    0.48594449282985
C         7.66711536346019    5.50842620281711    0.33875804256502
C         8.37600159054042    4.72626363503800   -0.56779411491257
C         9.47422886335197    5.25260256739165   -1.22125113214419
C         9.87727988536584    6.55443474474882   -0.96938350029433
C         9.18306078844590    7.33019643417500   -0.05694101928205
C         8.08245906305662    6.80709069797789    0.59654352158674
H         8.17039601708805    3.43377451577470    1.92970671594461
H         6.69328293502392    2.87439360793058    2.74124988409959
H         8.67144710686420    4.60575462970200    3.89340823346365
H         7.07098903482461    4.21223562223810    4.56941371966861
H         8.26794727263641    6.79575800633403    4.95746210482828
H         6.56956709545989    6.38257506250281    5.36016844345806
H         6.91095004942533    8.84832436824866    5.03931649464633
H         7.43613884717186    8.54368592903009    3.35629110592293
H         5.11553628190340   10.12888794077394    4.09237090514275
H         5.45227387615846    9.67709950785678    2.40405122302539
H         2.83772321499935    9.65729788208266    3.85054777612954
H         3.15082856959331    9.59673542966874    2.09997191184762
H         3.93123508584415    8.28093123090576    5.69531234824053
H         3.07269743332410    7.89095197019737    7.96408388930887
H         1.06883836233563    6.49422945405633    8.30654297951591
H        -0.06879603717052    5.47813672918335    6.36529472672420
H         0.78333468301011    5.86281097561517    4.09463771322030
H         0.54008468406644    8.93151255797257    2.84229384560288
H        -1.45305711044712    8.62649042615677    1.41991658320915
H        -1.56971354005611    6.73627498287404   -0.15566319599209
H         0.30588259086935    5.14098766362668   -0.32016018058602
H         2.31482765333300    5.44009671753140    1.07515856298738
H         5.67855721680080    5.02768842136804   -1.51744607389609
H         4.47630010673072    3.60666667525626   -3.11898909346438
H         3.64058872469457    1.38664828266009   -2.42330839301343
H         3.99952549620046    0.61069543525975   -0.10740033740602
H         5.17500146283180    2.02207524408854    1.50217936897859
H         8.06024305981106    3.71027821232234   -0.76691169389967
H        10.01686317868880    4.64537786018471   -1.93125449919902
H        10.73312403795742    6.96295901042828   -1.48617742264582
H         9.49637323344586    8.34499550155466    0.14040646783982
H         7.53282114246937    7.40784799909788    1.30854415438199

