44
CSD_code = FANTEV | q = 0 | S = 0 | Stoichiometry = C14H22N4O3Pd | MND = 4
Pd        0.37936908009215    6.39846082418246   12.46696609210923
N        -0.37832504650737    7.97760786198313   13.24775327055157
N        -0.82919478081810    6.38777789652835   10.50879518746246
O        -1.09160278709225    8.66334716094645   12.46488529649807
N         1.35097325437183    4.71845084042323   11.39978387219891
C         1.20942756475324    6.29709781257836   14.34363730698824
C         0.76794218353369    7.38342914653747   15.15084147036983
C         1.16550581803071    7.50915733250618   16.48638703747199
H         0.81980150263262    8.34579744970289   17.07367722245350
C         1.99230647583190    6.56663068024974   17.05406109569729
H         2.31463451020499    6.63855514461463   18.08130012162966
C         2.41768802684172    5.49074047886415   16.28111432213750
N         3.26523118345957    4.49976260140838   16.84663162978653
O         3.60122358896199    4.62184970117316   18.01219189978335
O         3.61737737158714    3.57037717018230   16.13400790444131
C         2.02530622022991    5.36063742697166   14.94146483263515
H         2.40435712071894    4.48834029398247   14.42529873550942
C        -0.09961488880670    8.31226120814635   14.47809095627585
C        -0.64681910979273    9.56382070779302   15.09412462492088
H        -1.23841337477356   10.09290760068716   14.35000347938951
H         0.16227155277873   10.20960111514167   15.43226950871072
H        -1.27979646476354    9.32571114525346   15.94816263124303
C         0.96493499556110    4.78329545980822    9.98309710544889
H         1.17120334683152    3.82258943098433    9.48464720648097
H         1.57690966160244    5.54827096774849    9.49667417657040
C        -0.51139361305754    5.14062994788627    9.81091396015174
H        -0.74264841847543    5.21939639348207    8.73590514579379
H        -1.13124574996984    4.34020814517609   10.22523722992368
C         2.81107574123155    4.79429354327467   11.48375488392016
H         3.13837958023207    4.67764656560715   12.51410577427276
H         3.15000693055405    5.77013137723535   11.12806722764281
H         3.28276655194859    4.00890296489858   10.87718839732542
C         0.88313054633286    3.46469165026584   11.99206123076553
H         1.27324270963873    2.59650443069677   11.44210855781819
H        -0.20741847575682    3.42690667032365   11.98425464657645
H         1.21169919584797    3.39674815255850   13.02762484954653
C        -0.39951957065352    7.54896748247760    9.72957985738877
H         0.68455211400133    7.53874121060744    9.59482154808021
H        -0.66882126144304    8.45340000267630   10.27631200517969
H        -0.88335763209994    7.56802675112286    8.74261113052290
C        -2.26706536671522    6.47322371290065   10.75980325032237
H        -2.47808046644833    7.41251213415277   11.27175333184386
H        -2.58041000011806    5.64666876130206   11.40282137775678
H        -2.84018982052061    6.43892264495816    9.82310860840345

