81
CSD_code = FANTUJ | q = 0 | S = 0 | Stoichiometry = C24H44B9P3W | MND = 6
W         6.47109497052412    2.52785632200005   14.46537735071338
P         6.40362859741653    2.67169464691456   12.00164506927210
P         8.70265075070320    1.65989256403403   14.44505661679239
P         6.10505907545889    1.60938401875094   16.66445447990879
C         7.76680054371611    2.75007605585803   10.75737967466068
C         5.53996857911663    1.20079816830797   11.28222147150033
C         5.30680992964377    3.98611698491438   11.36090284266510
C         3.93224621158127    3.86850226917891   11.54714023649260
C         3.07423704408928    4.87692165571770   11.15386579361441
C         3.57877057173346    6.02989513223509   10.57565038381317
C         4.94388759236181    6.16196346653965   10.39374363350628
C         5.80207572945216    5.14909887231009   10.78331968867525
C         9.74882071485715    1.09244571234616   15.86308703799251
C         9.98173857580368    2.67579276471060   13.60559265477394
C         8.70332398368871    0.10865432873000   13.47490500818661
C         7.47093345001569   -0.52685602029098   13.37227854786101
C         7.34062361181118   -1.71993571372904   12.68569442985247
C         8.45078565351631   -2.28268830417345   12.07633748739548
C         9.68055818446429   -1.65010996669601   12.15990724261313
C         9.81020452002152   -0.46357408509928   12.86040328123852
C         6.10646881350550   -0.24821514570470   16.64096277812219
C         7.08464647576972    1.81962064452475   18.22059249321553
C         4.38717312928291    1.77050129073394   17.29834430498222
C         4.02515606629861    2.16837797976475   18.57891154811526
C         2.68849481399108    2.26981178764990   18.92823708264089
C         1.69889416230536    1.97463250795717   18.00778750395382
C         2.04872368741041    1.57762928440458   16.72655964704429
C         3.38141800480669    1.48422904378851   16.37948286282833
B         5.40461616241272    5.96204965462039   14.55710257865317
B         6.83864338554143    4.95905766876286   14.22547332087926
B         6.93221754540446    6.13423947954483   15.51894237357588
B         5.34038873983278    6.45675235067031   16.29118969034462
B         5.24805514230578    4.27565587420780   14.54836015555002
B         7.48762940270030    4.49730078505676   15.72935898006779
B         6.63130543411409    5.40797451394739   17.08834203524060
B         4.85757118768608    5.16409391561299   17.29997523722970
B         4.18993220216666    5.23884135039075   15.63227695012192
H         8.40133016572941    3.61204756271956   10.94854347565607
H         7.35641699221095    2.81458309177248    9.74956921466499
H         8.36538332256446    1.84320917420673   10.84635924639769
H         4.70899885775200    0.90053671398784   11.91901744396760
H         6.24502526403959    0.37262416433948   11.22426736572631
H         5.16380597812645    1.42599228532868   10.28451749925455
H         3.52611141812009    2.97800398742037   12.00739865269959
H         2.00946974202360    4.76668774434226   11.30130456385150
H         2.91031898540982    6.82215009277411   10.27272411390309
H         5.34470028607409    7.06134640847859    9.94911492118528
H         6.86420739822240    5.27474065098812   10.64156650258439
H         9.22961145628063    0.32721388955217   16.43629193863999
H         9.95234227299538    1.94960565006201   16.50200720595674
H        10.68947651794339    0.68166677130009   15.49665419341438
H         9.74529149378447    2.75665692314416   12.55009663562927
H        10.98423985283295    2.26936073918285   13.73132042707040
H         9.93294985569053    3.66916908195556   14.04626313529507
H         6.60484486056872   -0.05637673607595   13.84018994298488
H         6.37940573564917   -2.21053864263719   12.61744533559298
H         8.35675686381400   -3.21188924791149   11.53332114911785
H        10.54335091476927   -2.08770126765245   11.67777110534992
H        10.77516049358989    0.01911692583860   12.92250543927909
H         5.37657293340500   -0.60435796200992   15.91454960532260
H         5.84653553269696   -0.64670663979840   17.62178280571463
H         7.09152678571783   -0.61115300859378   16.34928970597890
H         7.07888245113265    2.85672255273523   18.54630522890393
H         8.11366789016972    1.54619391022650   18.00591766029127
H         6.70350695793387    1.17515549607792   19.01250584009540
H         4.77886389423430    2.41104935539989   19.31247128087910
H         2.41985603397902    2.58503321296447   19.92619011669350
H         0.65835679872194    2.05602969215772   18.28497153925652
H         1.28058756518594    1.34628734944243   16.00260985088048
H         3.66233685738206    1.19324422977887   15.37301701426997
H         5.00125239255604    6.67626408828473   13.70875609799769
H         7.40896021679718    5.10649142518332   13.19924027216051
H         7.71609044467953    7.01308579560387   15.44933429092679
H         5.08226821357343    7.56982660658184   16.58198727537232
H         4.80970833819191    3.13895863133202   14.20170164071351
H         8.57942533759877    4.13206519179435   15.97352847009096
H         7.24331948788735    5.75071448165775   18.04041481443664
H         4.27643673079598    5.20226349276641   18.32252900268126
H         3.04254963499452    5.43113425089391   15.42232029138403
H         5.95332468352127    4.36626641256440   17.37586550970288
H         4.24711944505972    4.28414361398653   16.49969970359107

