36
CSD_code = FANVUN | q = 0 | S = 0 | Stoichiometry = C9H20N2NiO2S2 | MND = 4
Ni       11.93609058492917    2.31533177722980    7.36334242597708
S        10.74055654674982    3.18700640073048    5.99702279133564
S        10.03708173105940    1.81587368533775    8.20984967578044
O        11.18158188660919    2.14307563780483    5.07516898050852
O         9.41504080767140    3.71428954602343    5.82706601938831
N        13.66524793700584    3.38970903445277    6.78109177501810
N        12.80566388448863    0.53969612217356    8.05434496681899
C        13.27641663277443    4.12997685399669    5.56900558739823
C        11.73924448043876   -0.30946661515141    7.47451680702524
C        10.35330149961694    0.00070553410991    8.04139809112158
C        14.08598174418337    0.26979471146135    7.38599360974413
C        12.91963953551704    0.27962607368113    9.48899303725051
C        15.08844618945208    1.42492897377537    7.50491432377525
C        14.84788837005395    2.55972617783440    6.50233478210411
C        13.96301027634518    4.33170370250990    7.86726568526903
C        11.86252623412150    4.65794601217966    5.64475336178423
H        13.77035559202084    0.81746085364848    9.90081645424251
H        13.30356032964056    3.43534374452611    4.72525052437668
H        11.97360048871721   -1.37453972077347    7.64476003383150
H        11.71110023178154   -0.11606490248759    6.39406351237682
H        12.02244352584048    0.63010728063135    9.99449381956579
H        13.05556166211824   -0.79311998818407    9.68079775626959
H        15.08899113904303    1.81310655208202    8.52283314350023
H        14.78379230222771    5.00735257325479    7.58579782665279
H        14.71919490370673    2.10817320098937    5.51575631877847
H        13.08049269986475    4.92532222231065    8.10458551351558
H        16.08545617335073    1.02670678339678    7.30541538375728
H        13.99057315540103    4.94735875341549    5.37828786882311
H        15.74484845562533    3.19866136781781    6.47021097797445
H        14.25088644275047    3.78797321312769    8.76510296595535
H         9.59202695457804   -0.39744893348206    7.37127730085820
H        13.89071113657325    0.09439222871685    6.32485752600941
H        14.53493950177957   -0.64347961602483    7.80611828672083
H        11.52718066327449    5.07512961503979    4.70046700920441
H        10.20957756525472   -0.42943362610358    9.03225287241578
H        11.68018873543423    5.36387476994887    6.44989298487276

