76
CSD_code = FANWOJ | q = 0 | S = 0 | Stoichiometry = C29H33F9N3OV | MND = 5
V         7.83022363819298    3.97034337038380    9.53035399070305
F         8.10095061694816    0.31639068438862    6.78425336100435
F         6.10581654338849    1.05715061364116    6.51440154498393
F         6.43782673139511   -0.74610004139284    7.63437528884443
F         4.68799206271573    1.03157848477393    8.76309870776329
F         5.81158318191316    0.07099468760629   10.32267606466422
F         5.58115878940100    2.21390149334859   10.30966866627342
F         8.47001653322746   -0.52743845689542    9.40504652355292
F         8.22956745685039    1.11490945504760   10.76932845599720
F         9.40220440958437    1.37388865282710    8.99542567719595
O         7.27224829068071    2.60704012773015    8.40627259463818
N         7.83025223144195    3.87042053695702   11.11221873813321
N         7.60861091096309    4.86940294973568    6.67379645146978
N         9.12911426544273    5.11710235406337    9.38007693245687
C         7.76076835784695    3.88359668825373   12.51033197185662
C         6.59070291595981    3.02029620008537   13.02552313864016
C         9.07369703598197    3.35434444868224   13.12537880834279
C         7.54651933022043    5.33477832834970   12.99248015922115
C         6.52826393091945    3.07880530719648   14.55086953318051
C         7.83297133951588    2.54441495238373   15.13856150607357
C         8.99486515384268    3.40683461852075   14.64962128302501
C         8.79028907153359    4.85187911519450   15.10015262574928
C         7.48068257757481    5.37896957522066   14.51724014824171
C         6.31594275437868    4.52080072005010   15.00704256534946
C         7.02876339859517    4.13449542918862    5.74183423749425
C         7.67658411380821    3.10842288877256    5.07118462248091
C         8.98092407259511    2.81092278083121    5.43227902364832
C         9.58724796184440    3.56213003166565    6.42590204306360
C         8.86449550137668    4.59775071021889    7.01080306379003
C         9.47982772296544    5.51260206539763    8.03463987107217
C         9.98193951705227    5.71566900527774   10.32873316924870
C        11.10213086371323    5.00347843482051   10.78525404915914
C        11.95899783438617    5.59179888190366   11.70467753563183
C        11.72975366400455    6.87427713593003   12.16875117756169
C        10.63175775425842    7.57708330331992   11.71189822348920
C         9.75345559603986    7.01923119890998   10.79060075002603
C        11.34905635398712    3.60574092562277   10.30300353368736
C         8.57489069646692    7.81292458647526   10.31289865673643
C         6.19567448410873    5.20937194298657    9.41511030271858
C         7.06822789530164    1.33811102224412    8.68129457469496
C         6.92035977382472    0.47742248131843    7.39196825225914
C         5.77484654970253    1.14525944259836    9.52778807201614
C         8.29031602442527    0.79017618628202    9.47121889792747
H        10.57546634747097    5.52054532554796    7.91424174421992
H         9.11076103639328    6.53359476345976    7.84531062360171
H        10.60310528097185    3.35495787326730    6.73350175085157
H         6.00061738366754    4.38889097282906    5.51715244834406
H         5.86777792454751    5.72818581061168   10.31453455607016
H         5.39099342083258    4.54082792376030    9.10274248387607
H         6.34942640272631    5.93428353730179    8.61517777973198
H         9.51609510139474    2.00360741879752    4.95385220141454
H         7.16775810101731    2.54756136654091    4.30320670686289
H         7.74677255381100    7.14368969284767   10.09124559019492
H         8.83106112796224    8.37263525235941    9.41235079068451
H         8.27046797661058    8.52909677611676   11.07261765597451
H        12.40373929859860    7.32197384256828   12.88326956192266
H        12.81568511737887    5.03655963962043   12.05845518680023
H        12.18997449099952    3.16162362402375   10.82993502597580
H        11.56714247281102    3.59146417673971    9.23465492905561
H        10.45388549666882    3.00529516832161   10.47699038613684
H         7.78659616697820    2.56539582886123   16.22966515949247
H         7.98299747435855    1.50907687852796   14.82706169632358
H        10.44633991772353    8.57879959156709   12.07141341169016
H         6.73569932286576    1.99043205803085   12.69747434729873
H         5.66364558392389    3.39483978623432   12.58833703444309
H         6.61854570774539    5.71063054688000   12.55924381795810
H         8.37123880024590    5.94649092786867   12.62701757436116
H         7.33095728382568    6.41617498974683   14.83738053130986
H         5.69269794603103    2.46004875789502   14.89610790074201
H         9.23398768587061    2.32890403244510   12.78996044122664
H         9.89760636147236    3.97529160624156   12.77305552583463
H         6.25508317190449    4.56113283699503   16.09687425864189
H         5.37717197176964    4.90379975652463   14.60260568055204
H         9.93366213156778    3.02513773619649   15.06643369311924
H         8.75998494239200    4.90153764058806   16.19078017399689
H         9.62263808910102    5.46844054078568   14.75431453722389

