76
CSD_code = FANWUP | q = 0 | S = 0 | Stoichiometry = C29H36F6N3OV | MND = 5
V        12.98673928789633    4.61903625613789   12.74480115159357
F        11.57576340377111    8.04122159375517   15.01139705762831
F        10.13353485136561    6.54713170494219   14.45394276123302
F         9.91056152313896    8.57070257926306   13.76590764489835
F        10.37166314750400    5.33360158478840   12.20163377019887
F         9.65940017573842    7.21485507368664   11.42492698114743
F        11.42517355538709    6.30803692566115   10.60138644227298
O        12.65079600596756    6.39790394772515   13.13311449541140
N        13.74317906963268    4.60744594651693   11.34227106882254
N        12.17620878815418    4.39848635309129   14.83519360139092
N        12.32637277858600    2.98375274718739   12.66587166537525
C        14.60186905040738    4.66839741700812   10.24303570391528
C        15.46584246434100    5.94321596590451   10.35903402851779
C        13.81980418093650    4.72057578993975    8.91346892333383
C        15.53058850794725    3.43565879594333   10.20223412132618
C        16.42854724358292    6.03485468935422    9.17800117559581
C        15.63442763110718    6.09504458018111    7.87417664104908
C        14.79050767316916    4.82875467069297    7.73922011809134
C        15.70311902259678    3.60408616500559    7.71757778482090
C        16.49434871065927    3.54638795738573    9.02262741743962
C        17.34201995067289    4.80998513434939    9.16480194078426
C        12.25719550446099    5.18019865881289   15.89988724727033
C        11.35313534144589    5.11148492525077   16.94517109821184
C        10.31873494272278    4.18914246253530   16.86226598143374
C        10.24500605299833    3.36471592138304   15.75517196400554
C        11.20911028231338    3.50142642380111   14.75877252212013
C        11.24487006762643    2.62365274117538   13.54340284820706
C        12.62628116329506    1.95828439184352   11.74733875741343
C        11.99486523093008    1.90193103983521   10.49401668991348
C        12.34155268561836    0.90150387295594    9.59779465405820
C        13.28077690999952   -0.05888930420029    9.92811425708304
C        13.87070121722705   -0.02837321053035   11.17636488146601
C        13.54954822887761    0.96202263494275   12.09613763868947
C        10.96099969460104    2.92007660820942   10.11681546588032
C        14.18455711194033    0.93242324263183   13.45567090184285
C        14.80984264147043    4.40300846813766   13.72917091854986
C        11.70040486257420    7.25054892660353   12.76573580522318
C        10.81919876997752    7.61027743742585   13.99674732306644
C        10.77153859475598    6.54359508300115   11.74918216336119
C        12.21516215885456    8.56435205836410   12.13980036627572
H        14.80169211878820    6.81050566156589   10.38506028491278
H        16.01176108105667    5.90565811550626   11.30401944428802
H        13.22927956607666    3.80927562785806    8.82329129108389
H        13.14318511515279    5.57576953804170    8.92956656187871
H        16.08379563539324    3.37977109498721   11.14017906264635
H        14.91793985705186    2.53731528293713   10.11694429290663
H        17.03626913594080    6.94179836064204    9.27750457234081
H        16.31734388885240    6.17953365515331    7.02558728723300
H        14.98691463087251    6.97438513058141    7.87339148601664
H        14.21682804749769    4.87253946273856    6.80629157224978
H        16.38720829461459    3.66302956553853    6.86779085537826
H        15.10505568058621    2.69708520809610    7.60904739313586
H        17.14910015239172    2.66759120804765    9.01256593811725
H        17.91790194630574    4.76745732571013   10.09140184458102
H        18.04666354140081    4.88121533084688    8.33291058149493
H        13.07256365682975    5.89321260945923   15.90403908907992
H        11.44771807970376    5.76902173647388   17.79484314503038
H         9.58488467773111    4.11451533436255   17.65142014881257
H         9.46005174902471    2.63003305368779   15.65587012946238
H        11.33630210998229    1.57130310581708   13.86589252479199
H        10.27341716189611    2.70605078104302   13.02028035072153
H        11.86218709278276    0.87179418586556    8.62932131613363
H        13.54272667963625   -0.83046769705502    9.21962544109456
H        14.59241523953135   -0.78430793562641   11.45114567406001
H        10.03251316526062    2.74993004384332   10.66345269494083
H        10.73921986852386    2.86668714031020    9.05336673923659
H        11.33483605444069    3.91277534807918   10.36171279246824
H        13.71487197653267    0.16472515965330   14.07366981063566
H        14.07587703449607    1.89756618851751   13.94357558200605
H        15.24205168621194    0.68947969085739   13.37198353900202
H        14.67253408408031    4.03660994469713   14.74738337146052
H        15.20761154107222    5.41811425513660   13.79028465653422
H        15.55262488546851    3.77527331327731   13.24276180272064
H        12.79506992628360    9.10177912234145   12.88666480642892
H        11.38915716419316    9.18354521152004   11.79706724420260
H        12.86617899008522    8.31161057880880   11.30540069401045

