25
CSD_code = FANYAW | q = -1 | S = 0 | Stoichiometry = C4H12Cl4O2RhS2(1-) | MND = 6
Rh        7.52815971429759   -1.72906822786464  -12.80080804271419
Cl        5.37388748415527   -2.10622324870434  -13.52688183093470
Cl        7.04195641998839    0.44668917411185  -12.30693963680809
Cl        9.80457734716574   -1.43972605911533  -12.28830832026038
Cl        6.98880026954735   -2.46127545626811  -10.69611493678260
S         7.93104491608570   -3.94846060228067  -13.16368235138518
S         8.15983318327083   -0.98456867579568  -14.88230090479013
O         8.41085212090123   -4.37489349947799  -14.47664334777512
O         7.20710282850343   -1.00327805889333  -15.97584316180374
C         6.51853328940833   -5.02462491191031  -12.77579279183317
H         5.72146395054269   -4.76019136759828  -13.46204901592837
H         6.21781343983289   -4.80949272675378  -11.75723528337807
H         6.83062075472042   -6.05345360051598  -12.91095509393248
C         9.10516439855634   -4.66011249178939  -11.96373140836822
H        10.04649292387223   -4.13391458846834  -12.08341553526300
H         9.21877929621057   -5.71490168937384  -12.18385987827535
H         8.70201500812202   -4.48179626557675  -10.97387109295641
C         9.65234802745534   -1.81526069439922  -15.51968468139347
H         9.42648766321412   -2.87430045888153  -15.59008876254519
H        10.45760464740764   -1.64446511897538  -14.81597333290505
H         9.86327680540767   -1.40066753959751  -16.49817806509624
C         8.86101667156248    0.69922414254171  -14.84577462998883
H         8.05853597545971    1.38339335345956  -14.59400185482338
H         9.26605070323076    0.91537700569673  -15.82753681669460
H         9.62128216105082    0.71789160646058  -14.07382922339693

