111
CSD_code = FANYIF | q = 0 | S = 0 | Stoichiometry = C50H54N6Ni | MND = 4
Ni        8.29543017294735    2.27079934455534    5.57264731193670
C         9.92299653092474    7.11429881374406    6.25713568805072
H        10.09206174269915    7.99712700199660    5.65623573511936
N         9.88761057941996    3.44248676547655    5.88654527855802
N         9.63976510127626    1.24620678940751    4.43127515290143
N         7.91150731415020   -1.35737845711316    2.77630076550591
C        10.94620301872566    3.02346780996994    5.26702101461083
H        11.87632107813440    3.58892471702546    5.25863689019513
C        10.88478256569635    1.77442736448300    4.56768653655423
C        12.01380230986031    1.15761708656166    4.01677540578701
H        12.98382793854731    1.60978035688660    4.15900171282913
C        11.86657678088263   -0.01359708384405    3.30343616076476
H        12.72268541575060   -0.50955514288614    2.87142699353831
C         9.50468312845138    0.11993049843055    3.71194464462255
C         8.14278553774875   -0.34725461147359    3.50389801772814
H         7.37197134137241    0.28886588199310    3.96978960763039
C         6.67974702456224   -1.89929873292366    2.49267354421853
C         4.30843678627277   -3.18594925119521    1.73724753359438
C         4.55448699864929   -2.86221804263962    3.06149832301424
H         3.81930862959189   -3.11449182198479    3.81370922155013
C         5.71483019302163   -2.21512998399393    3.46110315571473
C         9.83540259452347    4.72275476967273    6.43550311262616
C         9.43478861530453    4.85278328271506    7.77604858524156
C         9.13993007883082    3.62132641982232    8.57348717753362
H         8.56399187295056    2.92012068356463    7.95388682393351
H         8.57525092315669    3.86042684607046    9.47148589650050
H        10.06197297664597    3.11762228790386    8.86542663703651
C         9.55598140020957    7.25847055379280    7.58556765300792
C        10.07997310893354    5.86983943193598    5.66608181430206
C        10.44747258023658    5.79904046466386    4.21291997783534
H        10.01924177140967    6.64759307519965    3.68401266031918
H        10.07734545902853    4.88483314355499    3.75518209032527
H        11.53030053593737    5.83497208763774    4.08523090311921
C         6.45860211361312   -2.25414962956895    1.14845490062938
C         5.27670606255927   -2.87095684581133    0.79069950081174
H         5.10610250687845   -3.12409926793318   -0.24660098556799
C         9.31619003403175    6.11239790520514    8.33218472652551
H         9.01615844244140    6.20447042514841    9.36718915418989
C         9.42653197579413    8.61833005484570    8.20321080322081
H         8.68940273830143    8.61381881852560    9.00348076057736
H         9.13621988613216    9.35618328873211    7.45844473344074
H        10.38173668829582    8.92865666579841    8.62903818233507
C        10.58846681777460   -0.53531540983847    3.13837937747769
H        10.40708526070470   -1.43090355573645    2.56782227135311
C         5.91464957100382   -1.91072074125651    4.91597713179665
H         5.48062698248897   -0.94096198434573    5.16030271294527
H         6.97057385466110   -1.88562125779500    5.17931371530162
H         5.42140475480388   -2.66031014466126    5.53179616998216
C         3.02945207974157   -3.84942562977640    1.32448966547472
H         2.52659836366068   -4.29268651217398    2.18058921254306
H         3.21905179956415   -4.62592886641523    0.58580053010017
H         2.35666514278287   -3.11818431149796    0.87455916747034
C         7.49483111443251   -1.90715758223460    0.12441343843027
H         7.47775342159266   -0.83706092475451   -0.08417192290837
H         7.31812139235745   -2.44431088051404   -0.80395910186689
H         8.48488310305914   -2.14914860830503    0.50530164114834
C         6.66813872380839    7.11431413775345    4.88907824071217
H         6.49906638833321    7.99698878215190    5.49019989568848
N         6.70339121286031    3.44244463465707    5.25878236678293
N         6.95096745171375    1.24630005564745    6.71408932899623
N         8.67957803547109   -1.35687737998847    8.36928205988550
C         5.64461599123289    3.02337939874718    5.87799070255362
H         4.71448090976217    3.58881207298235    5.88617249658912
C         5.70593173012458    1.77436239199401    6.57738521554378
C         4.57687418185974    1.15753482678909    7.12818468539110
H         3.60686381181770    1.60969965776168    6.98588774917316
C         4.72410884672377   -0.01367701095285    7.84154230229866
H         3.86795280564726   -0.50969234456945    8.27338530884168
C         7.08609436999110    0.12011513043336    7.43354028368427
C         8.44805904974090   -0.34668581022865    7.64188911279964
H         9.21876384832995    0.29008596979180    7.17654756002069
C         9.91139711500543   -1.89842601242915    8.65328993514153
C        12.28236260408041   -3.18517840160431    9.40946613960574
C        12.03703381681271   -2.86080934952961    8.08519597520963
H        12.77275833439770   -3.11280135045302    7.33351362610274
C        10.87684340748522   -2.21367681375711    7.68520464723576
C         6.75567264794363    4.72282246126304    4.71006979773445
C         7.15632214753384    4.85317323201727    3.36957886436450
C         7.45111392195933    3.62189885751383    2.57182782120604
H         8.02691429111279    2.92043739739160    3.19126378462889
H         8.01589071977751    3.86118012591548    1.67393907060120
H         6.52903015803246    3.11838953773908    2.27967597643910
C         7.03523759282520    7.25881696250187    3.56070322302855
C         6.51108462545046    5.86970844464710    5.47978921415413
C         6.14343953701694    5.79851840493417    6.93289840500528
H         6.57154915441632    6.64696544823727    7.46207115106501
H         6.51357737164720    4.88422110906633    7.39044842006891
H         5.06059292542166    5.83434574726390    7.06047227673337
C        10.13182866395496   -2.25387293273919    9.99752572154696
C        11.31357310682787   -2.87073250219823   10.35567729426113
H        11.48339391554259   -3.12485609950555   11.39287909153913
C         7.27499380760145    6.11293548739044    2.81378446470434
H         7.57506126890204    6.20526717903634    1.77881375245682
C         7.16481545394070    8.61884739015473    2.94346606730231
H         7.90198795489242    8.61452580760323    2.14323572054746
H         7.45513931074625    9.35645206667348    3.68847459603165
H         6.20965433973632    8.92937055597137    2.51768555986832
C         6.00224612599395   -0.53527100308865    8.00684568892067
H         6.18353284257375   -1.43088923018633    8.57738860968356
C        10.67745986978496   -1.90920360369736    6.23035360277252
H        11.11087107818775   -0.93931780440897    5.98600242950284
H         9.62158757574054   -1.88475338894788    5.96668602566094
H        11.17124911538991   -2.65856730373930    5.61489171704300
C        13.56112727428273   -3.84890678743195    9.82257030114914
H        14.06445790043392   -4.29166365703163    8.96652550408341
H        13.37117027317508   -4.62579195333418   10.56070611388217
H        14.23362708126652   -3.11790507602148   10.27323807919748
C         9.09468645966102   -1.90793205399485   11.02097691949281
H         9.11126398940967   -0.83796451769462   11.23038930225366
H         9.27075894571066   -2.44575315846845   11.94914069330318
H         8.10501970538872   -2.14996508273060   10.63903929591949

