24
CSD_code = FAPBIH | q = 0 | S = 0 | Stoichiometry = C6H12Br2PdS3 | MND = 4
Pd        0.61751438742892    4.70024784336127   11.20446806244837
Br        1.91913223821541    3.59728404097265    9.54198712269938
Br       -1.03669426642096    5.36413283898588    9.62245536054307
S        -0.60382621534813    5.69126300821139   12.92991548200997
S         2.11667371429200    3.93800537097968   12.78549884109762
S         2.12435638248234    7.19463012187489   11.31881940132465
C         0.47956445492744    5.61330289395812   14.42463641408897
C         1.41987774811701    4.41822168921709   14.41702253433756
C         3.53854965421389    5.05709788818957   12.54418693192855
C         3.29592610105068    6.55601760227867   12.59336776536661
C         0.88622914863305    8.09298596854688   12.33685367999357
C        -0.49090514832566    7.45345073850227   12.45710084450206
H        -0.19260603811093    5.54654970519999   15.28231219702942
H         1.02068280062126    6.55390185179561   14.48407488517353
H         2.25914229391448    4.57428137530668   15.09625515379449
H         0.88232878850262    3.51871278309020   14.72337158177953
H         3.91152242032831    4.76807333633323   11.55753330571464
H         4.27834128696031    4.78306800947875   13.29945165691091
H         2.94991950545703    6.87700268122364   13.57415557195949
H         4.24627235033751    7.05100656858964   12.38512192814721
H         0.75405266080324    9.04884769903490   11.82781460331181
H         1.34046171603924    8.29143044913963   13.30724096727531
H        -1.08402423124926    8.01239560189981   13.18412638392525
H        -0.99979175286988    7.47218993382931   11.48912932463815

