109
CSD_code = FAPBIK | q = 0 | S = 0 | Stoichiometry = C50H52Cl2N2P2Ru | MND = 4
Ru       22.41765097857119    5.30727983944681    9.24342919322975
Cl       22.98970094735919    3.03354695432558    8.72154789464118
Cl       21.71343767040696    7.59460752661199    9.44302543491549
P        24.50557087560465    6.06781879855757    9.88290145355382
P        21.30028789666435    4.43142287633393   11.06855054673624
N        25.19149374404677    6.67982696266310    8.45427947854694
N        19.80382760584630    3.92241146708098   10.44577563981375
C        25.62333839111781    8.00713787517990    8.17938744022400
C        24.79058191424528    9.09298047662105    8.41000694565423
H        23.79053489440430    8.91922468292020    8.77902775295735
C        25.23633420030383   10.37743518616409    8.15930522981324
H        24.58645438609371   11.21672388676220    8.35493156744447
C        26.50899140406974   10.57961881328557    7.65034834472283
H        26.86267522781591   11.58043572549003    7.45240201762125
C        27.32083331200585    9.49778019933344    7.37235555041805
H        28.29868464718291    9.65335517168628    6.94008574171399
C        26.89191341418341    8.19314330675537    7.62060042103306
C        27.74893251029923    7.06957710998224    7.22435069163904
C        27.27665510372853    5.95468639480167    6.63280576867874
H        27.99144489685452    5.22381085682312    6.27488175644691
C        25.88784856092292    5.62089362280053    6.37376722131772
C        25.54675313395881    4.84851720731843    5.26264079666127
H        26.32978519614514    4.52757254070199    4.59102248497227
C        24.23664606522003    4.49052490008473    5.01194325290680
H        23.99695537881924    3.88855650080812    4.14871237814580
C        23.22569382507506    4.90261914508624    5.86605730006128
H        22.19910490998809    4.63048101969380    5.66096368484492
C        23.54602062450947    5.65534944242835    6.98448684061800
H        22.74736276044026    6.12452952709473    7.60308354425546
C        24.86683422257826    5.99197783505088    7.25901092747736
C        29.19882805415125    7.24876530565074    7.41348500488386
C        29.67598833680099    7.83199449055156    8.58678558045262
H        28.97488958716077    8.16145227103373    9.34060234456598
C        31.03287047393626    7.98410249497370    8.79789491656355
H        31.38568485144661    8.43153656083672    9.71565501408443
C        31.93825962148229    7.56773272743762    7.83607825584635
H        32.99863708674911    7.69132737001718    7.99872324099119
C        31.47600797019073    6.99868563204668    6.66132789495264
H        32.17663253674816    6.68231597238797    5.90225724634977
C        30.11901873598935    6.83813970190945    6.45176801758467
H        29.76755326550549    6.41409382651397    5.52248737482583
C        25.88010940114420    4.90884403948863   10.46890689859136
C        27.12155459345239    5.69304067120717   10.88593938054951
H        26.96765928450628    6.24100526167014   11.81206112866815
H        27.41151536566124    6.38912741607447   10.10073282130487
H        27.94860369081271    5.00084107918810   11.03910460054979
C        25.29739383918504    4.11692980881886   11.63219431496105
H        24.44816303586024    3.54370681535030   11.26764078673808
H        24.96067182795655    4.77720532723979   12.43058483601082
H        26.03804986073302    3.43081379198759   12.03975887723928
C        26.25683695184482    3.95175054961910    9.34154344410014
H        26.87733026843990    3.14677112281900    9.73343592671581
H        26.81897564450210    4.46788318606514    8.56779002514200
H        25.36971038845278    3.50652309315420    8.89705932353366
C        24.69647599932540    7.47173356877972   11.03772760075163
H        25.60660902143168    8.02064625949576   10.80447951851705
H        24.73942648885222    7.08782050206750   12.05424141519983
H        23.83481298502915    8.12803184553357   10.94182637782437
C        19.24979947956674    2.61229488223521   10.43670570345505
C        19.97605449258238    1.53284677597563    9.95371672863208
H        20.96539668035213    1.70176158234805    9.55473292329017
C        19.43219488095866    0.26198070900064    9.97563738685333
H        20.01017077997477   -0.57354979785468    9.61114848763847
C        18.14687295033789    0.06939953754868   10.45567820009624
H        17.71638695573935   -0.92065320024260   10.47516980446176
C        17.40321640102285    1.14921919729820   10.88883467617078
H        16.38740683826414    1.00435553229616   11.22705194085475
C        17.93390466711208    2.44001250581682   10.87863459464174
C        17.07712612523603    3.56903006771573   11.25921166818310
C        17.06403135939899    4.74219239373990   10.59630730605450
H        16.32323149533477    5.48028107729997   10.87856586662620
C        17.91833162374776    5.13422720015763    9.49023455641431
C        17.44095296810723    6.00608970705664    8.51066399304313
H        16.42314695646490    6.36152730904424    8.58102657068513
C        18.24218301672635    6.41826545793757    7.46403508939331
H        17.85277737202766    7.09667602585971    6.72033104782168
C        19.54743014730564    5.96256002332948    7.36431439064944
H        20.16927887782689    6.27778109883711    6.53728016680190
C        20.04577948385941    5.11044004105784    8.33684718467318
H        21.03347420894792    4.61272747444822    8.20583552289931
C        19.25363370946170    4.71701532949967    9.40974004037690
C        16.13030857596845    3.33543137489192   12.36351695452398
C        16.54981281664104    2.64831469932716   13.50198637743952
H        17.56443998001208    2.27986268643161   13.55758613038011
C        15.68553840081602    2.44246743928371   14.56011720305649
H        16.02884443385928    1.91428631936168   15.43768388271931
C        14.38277060563894    2.90823829461037   14.49612095847621
H        13.70568383685190    2.74275557767779   15.32092528275059
C        13.95086936090390    3.58098455319989   13.36545826648542
H        12.93259513899117    3.93673983205836   13.30449129082421
C        14.81650860443774    3.79511009440054   12.30910850859332
H        14.46369321415719    4.30073188421331   11.42209128133690
C        20.73526837511253    5.49118916217665   12.52937767946254
C        20.08644985258134    4.63377697697422   13.61293455100344
H        20.81211883870889    4.01487309381962   14.13447583047152
H        19.31577053193201    3.99727645739484   13.18153400258457
H        19.60997006262757    5.28273270417454   14.34670964675752
C        19.72321440777950    6.52708956689448   12.04817614716995
H        19.56447994858166    7.27524950883073   12.82383423993058
H        18.76739174697101    6.05981856378218   11.82633230230021
H        20.08286048068597    7.03714774351410   11.15750317424174
C        21.98080331646428    6.20085475893473   13.04412601084860
H        22.36939837962167    6.83439103077450   12.25026813843031
H        22.75089057999949    5.48708698566583   13.33445901560150
H        21.74126626283083    6.82131902929738   13.90616775576676
C        21.90108001338306    2.93001533328737   11.92069169727674
H        21.05909973109002    2.37284555609081   12.32643171483566
H        22.57589237678519    3.22612737443336   12.72039291669866
H        22.44358079037380    2.31273592429432   11.20861572175661

