69
CSD_code = FAPBUV | q = 0 | S = 0 | Stoichiometry = C30H20B2F2FeI2N6O6 | MND = 6
I         5.48494778361734   15.96292850689297    0.87189334794534
I         1.70593670936563   15.97118449271703    0.67376393549706
Fe        3.78230790174501   13.65433250766353   -2.88630766308998
O         6.24507800725149   14.17964539059366   -1.56453689458910
O         1.20786284018740   14.50554264460245   -2.02756198122459
O         6.04558230319158   15.07762875358523   -3.81235193701239
O         1.28679210622080   13.40190318507198   -4.19865676035699
O         6.37597793866048   12.69445951580327   -3.49255286350907
O         1.52991099652239   12.10184216040319   -2.16253802963497
N         4.90953003836085   14.25017440829685   -1.49692167230600
N         2.53037362465637   14.59841913304273   -1.83855684314609
N         4.74373338865477   14.80122057596308   -4.03791054806951
N         2.56535635666449   13.81812375452869   -4.31900312652803
N         5.09172498961953   12.34862502207403   -3.26098081119494
N         2.85597950033068   12.07818500368966   -2.41300148037745
F         8.05417403991421   14.22266597083455   -3.03035403164796
F        -0.48904858753110   13.08216447900579   -2.74662212965716
B         6.72569762258384   14.04380184079638   -2.98284202948487
B         0.83917594726578   13.26376628924952   -2.79031371679601
C         4.36959470854261   15.00214930445532   -0.59087106144929
C         2.96776401986227   15.11720111758145   -0.73517034035687
C         4.23071859430492   15.08186141493493   -5.20571719491961
C         2.87585759691011   14.60837810075161   -5.31178819653329
C         4.81879856855080   11.09933397454379   -2.99407610623919
C         3.44083473599177   10.92843776142307   -2.61714784675350
C         4.94860281638183   15.73878800398805   -6.30020021082640
C         4.77323980567256   15.28359172514311   -7.60853455702676
H         4.11541690221447   14.45006890696546   -7.80204679364954
C         5.45692555829518   15.88219317536651   -8.64812052988626
H         5.31990920987784   15.52044173963330   -9.65607931885687
C         6.31772682351983   16.94010762914229   -8.40026178845473
H         6.84880560321384   17.40674101409406   -9.21610248918976
C         6.49995211190862   17.39187872990305   -7.10409084407999
H         7.17385238870759   18.21127596413446   -6.90593778558493
C         5.82451797576792   16.79498774227210   -6.05573137808634
H         5.96991853281579   17.14763381744892   -5.04754184017617
C         1.95172069526653   15.03115207591300   -6.36682524812141
C         1.04593186757840   14.13351656185930   -6.92933561418470
H         1.02706743607091   13.11015633861820   -6.59066978420118
C         0.17951801289922   14.55390760542791   -7.92124151101348
H        -0.51647522084587   13.85138542206755   -8.35376287862884
C         0.19936593659372   15.86864408992656   -8.35551647270425
H        -0.48059614261195   16.19400205488735   -9.12829001788232
C         1.08890004365920   16.76899604177147   -7.79043223943682
H         1.09975714530546   17.79751237180619   -8.11816943591822
C         1.96255364020021   16.35706008154037   -6.80359819368761
H         2.64298412978381   17.06409923821676   -6.35431108405311
C         5.79788825993863   10.00961866649180   -3.00128593153050
C         5.76969917985728    9.04759792771153   -1.99026722123487
H         5.03417740770590    9.11777121020246   -1.20356568775813
C         6.69540200938857    8.02288297062348   -1.98288668882667
H         6.67094524735395    7.28658898653701   -1.19380140330681
C         7.65415086072425    7.94097899590211   -2.98054727758397
H         8.37482366348910    7.13727188204925   -2.97237018982573
C         7.69043604170795    8.89612215672345   -3.98253520672435
H         8.43958212474737    8.83966172387585   -4.75755810899655
C         6.77230453315275    9.92956740863963   -3.99461432263426
H         6.80370636830839   10.67408633387236   -4.77379221583088
C         2.77945113450603    9.62442723406908   -2.53296897103689
C         1.85175914633127    9.35160389970837   -1.52928510479993
H         1.62066992476883   10.10579937918590   -0.79454755374069
C         1.23546642609641    8.11524493374817   -1.47301971635028
H         0.52153320221087    7.91084847535937   -0.68981903341177
C         1.52805199887782    7.14513540139559   -2.41679866448103
H         1.04318632188698    6.18168761309809   -2.37124506469237
C         2.43999235827314    7.41547363650885   -3.42521908493017
H         2.66270319466484    6.66543085444690   -4.16915135972680
C         3.06581984171657    8.64481041149226   -3.48569784531478
H         3.76449375057393    8.85837425972836   -4.28019735017787

