73
CSD_code = FAPCAC | q = 0 | S = 0 | Stoichiometry = C40H28N4Zn | MND = 4
C        18.71408692625106   -1.06387425427556    5.40361068005282
C        19.38813411044602   -1.51639645460495    4.21961780171113
H        20.39188316588902   -1.89531355221734    4.19319896018164
C        18.51533753132446   -1.37476729503791    3.19516921698193
H        18.65980665935712   -1.62546439635458    2.16237162795884
C        17.30825105930221   -0.82439560607926    3.75165207891290
C        16.16291001840877   -0.52425669389024    3.01650804139708
C        14.98046991550163   -0.02517914538522    3.56561647585191
C        13.83302290246352    0.35701922882872    2.79122296407522
H        13.76492406257513    0.30732928106112    1.72207225807106
C        12.90016272078879    0.80125902632543    3.66570982000445
H        11.92241397676547    1.18530574830916    3.44925921084260
C        13.47513693421470    0.69179977285890    4.97706099604234
C        12.82125711700351    1.05999838914465    6.15240088757376
C        13.38952852129298    1.02601063961150    7.42537255912142
C        12.67988476456003    1.33787804319798    8.63427242120894
H        11.64513770104286    1.61456385705247    8.69000134726187
C        13.55805996115014    1.18711952957272    9.65331721372540
H        13.38024986108068    1.31766048767468   10.70288210889344
C        14.80661431277595    0.78329203618132    9.07000651561194
C        15.96288090746430    0.51704751233743    9.80521662838113
C        17.15734288137741    0.05484642539742    9.25609164685471
C        18.36282880969041   -0.18147963953795   10.00487419332053
H        18.47587366877589   -0.01710746025637   11.05874316045641
C        19.28948039689293   -0.62321075411411    9.12313028335753
H        20.30864174915058   -0.90254979405737    9.31035541266417
C        18.65653102719420   -0.64842492959709    7.83478371949974
C        19.28116881150144   -1.04955921090066    6.66638132823245
H        20.30643930365907   -1.38288101334717    6.74749544355092
C        16.20488021533262   -0.74188713328413    1.55505759618574
C        17.09591895705790   -0.02995016488822    0.75665958958973
H        17.75198180940242    0.69619366814341    1.21463421130985
C        17.13271248694217   -0.23470837494527   -0.60841859024478
H        17.82621334104510    0.32964734384326   -1.21591432053057
C        16.28891727872747   -1.15824285227236   -1.21649532864065
C        15.40301884519088   -1.86813808629060   -0.41766008268063
H        14.73962120860017   -2.59232565640709   -0.86926771346269
C        15.35684042220951   -1.66229630884478    0.94916294230187
H        14.66642781603160   -2.22717126020940    1.55876731089410
C        16.34662177154633   -1.37173856824083   -2.69849205677163
H        17.33740029106920   -1.71589914474552   -2.99352164947607
H        16.15009761403417   -0.43824807982948   -3.22459185738564
H        15.61456573195002   -2.11019704749600   -3.01536374833041
C        11.42073266515777    1.52278331741228    6.04022344177888
C        10.42740993441448    0.66412622794026    5.57922561294903
H        10.68800584660308   -0.34973606438303    5.31179044939663
C         9.11815810579517    1.09806925420884    5.47702532202517
H         8.35434298037753    0.42115126589238    5.12268989986063
C         8.78549678989349    2.39598760062490    5.82732442999579
H         7.76334713154548    2.73483068585070    5.74448178090152
C         9.76857389909337    3.25785587516949    6.28421439948160
H         9.51449063924692    4.27206456998725    6.55626175010197
C        11.07731401858043    2.82426294922459    6.39356171812276
H        11.84681813647114    3.49671538225428    6.74428888036346
C        15.91477458492300    0.73599970644504   11.26647689312632
C        16.08387853172527   -0.32613974919805   12.14971566635947
H        16.23960894593418   -1.32073475417614   11.75725825904559
C        16.03954633510384   -0.11795529998145   13.51467277079241
H        16.16772226263720   -0.95445613160845   14.18723291636403
C        15.83357864625425    1.15358169470896   14.03773847041021
C        15.66725501439225    2.21192961955879   13.15377403626752
H        15.50892073845651    3.20905778784785   13.54001752492543
C        15.70306846202791    2.00841841965905   11.78686752611585
H        15.57990306461403    2.84260274091710   11.11131998107022
C        15.77213810590144    1.36634624784442   15.51965027418044
H        15.94893347376637    2.40927172714367   15.77118442876360
H        16.50976565317312    0.74985715070510   16.02937920174443
H        14.78709474301703    1.08804759521809   15.89608990321877
N        17.45442069048963   -0.65717853465584    5.09325441032228
N        14.74169471327957    0.20229852419641    4.88566661646490
N        14.67189686076260    0.67868876602623    7.72009749776114
N        17.36855619487657   -0.22651275335621    7.94259338199836
Zn       16.06217526444647   -0.00194193390386    6.41067125153363

