40
CSD_code = FAPRUL | q = 0 | S = 0 | Stoichiometry = C13H20ClN2O3Re | MND = 6
Re        2.72123657061714    7.13016164177429   16.44317412143557
Cl        4.52789930362195    8.17799900350836   17.57067406534645
C         3.70458571274686    5.44796877322225   16.49542458270194
O         4.36266683554553    4.51004827070868   16.50999091891178
C         3.62792723890266    7.41541889933730   14.74163807799890
O         4.23438413426272    7.55760277710132   13.77954654994306
C         1.15391485882336    6.34171331274628   15.61146586734513
O         0.20631015154323    5.89269035118252   15.14052151084579
N         1.80446456419351    9.10872104188686   16.67085455456002
N         1.86213929923976    7.07594849111619   18.46104156447137
C         1.56185366149268    8.25846070660842   18.85139596717103
H         1.28158576236896    8.49849696328975   19.87219776516551
C         1.53208883380717    9.33733405158247   17.90159526315354
H         1.23313400701525   10.31063382890575   18.27756270188918
C         1.82456690424185    5.95976958091215   19.39870918207745
C         1.24559146867715    4.74395398787778   18.66437372455231
H         0.22593456261994    4.94772817165294   18.34374650228093
H         1.23718955632034    3.88314915923441   19.32733365262166
H         1.83853856140214    4.49771108340165   17.78655369292631
C         3.26832195535778    5.67998018940389   19.83941613700489
H         3.90544377602011    5.49728958651210   18.97807077255186
H         3.29438712742234    4.80694972019719   20.48592152206655
H         3.67072539930480    6.53434599095030   20.38061129402899
C         0.96365471653784    6.22045946864970   20.64265213553603
H         1.41869355617695    6.94725016637241   21.31239814779663
H         0.86072455799908    5.29046105218590   21.19530799250792
H        -0.03282068219161    6.56022687010445   20.36350472004314
C         1.70575950184861   10.17764689482093   15.68390708262756
C         0.84301186124078   11.36491307902921   16.13357707620255
H        -0.13666493370587   11.03069033660153   16.47245097382306
H         0.69808945569996   12.02941062175912   15.28598709956623
H         1.32036572270347   11.94347073196275   16.92184424033340
C         3.12948721600474   10.67672653808142   15.39956988452528
H         3.56633852863644   11.10577778217341   16.29942088708632
H         3.10608757816390   11.43461401457295   14.62116130541543
H         3.76688964458165    9.85921664175084   15.07342847528603
C         1.08232033977522    9.58851515670522   14.41219035782686
H         1.67160373865515    8.75457995381895   14.03771158790740
H         1.03263309356479   10.35065274004943   13.63939662820237
H         0.07463585875993    9.23241236824749   14.61677141426182

