103
CSD_code = FAPSAT | q = 0 | S = 0 | Stoichiometry = C50H46FeN2P4 | MND = 6
Fe        6.70952291243940   13.62514879603549   11.49353203483001
P         8.09308607217455   13.39521153336189    9.84896712808029
N         7.54958536920865   11.80007719312473    9.53417552607293
P         6.53055274284886   11.54613184956162   10.90191395300539
C         5.21667615016014   10.60746818632365   10.03167180184556
C         5.19623199363826    9.23093091054259    9.84946656373125
C         4.19145710710685    8.65104382139155    9.09386634743027
C         3.21155385080168    9.43580127024987    8.50921119279107
C         3.24131710805041   10.81222673456150    8.66869667397586
C         4.24131508967077   11.39204780447746    9.42540585525650
H         4.29132327135902   12.46430185312749    9.56134275431682
H         2.48430592387679   11.42813728684448    8.20393674446455
H         2.42837914573167    8.97479061554126    7.92452035657349
H         4.17537090331313    7.57870091191638    8.95805206484711
H         5.96075908157252    8.60996849519514   10.29464424082532
C         7.36401868834255   10.20633715426394   11.81437302721291
C         8.75049839547779   10.09461908174981   11.79696573925781
C         9.38158329863442    9.11804232452847   12.54339162221776
C         8.63651210886846    8.26072476437246   13.33689603491510
C         7.25862065478913    8.39886021664657   13.39862193503779
C         6.62391140851705    9.36785619641796   12.64547887219587
H         5.54900440755096    9.47774105339352   12.68750545886472
H         6.67600185322257    7.74603376444978   14.03348818024084
H         9.13051132046125    7.49273324601751   13.91448842322314
H        10.45820966086170    9.02947055102092   12.51110034868548
H         9.33884739885088   10.78143270574578   11.20056684702623
H         8.09838680047512   11.06856120740537    9.08360205520256
C         7.94784495470120   14.18617880632783    8.21374249494286
C         8.67939902680618   15.34482176400334    7.97279923363709
C         8.52691158879461   16.02754859989440    6.78120891032806
C         7.63583861872715   15.56155704845121    5.82714777455795
C         6.89411546741512   14.41655011050658    6.06925892697360
C         7.04110542808114   13.73379043405508    7.26299892057849
H         6.45904758707016   12.84492198609480    7.46841632100041
H         6.19519375650373   14.05908934822327    5.32621939311790
H         7.51652421030086   16.09503964639160    4.89525951767107
H         9.09937584257978   16.92480959406929    6.59359040901996
H         9.37413006579348   15.69682814177632    8.72605624221024
C         9.91093273778406   13.17755598737540    9.87422894601657
C        10.62024793658917   13.48924914160945   11.02167052723548
C        11.98315740559483   13.26388553776335   11.08499160027486
C        12.63929420396268   12.72128189936319    9.99264194304349
C        11.93436380404343   12.40946262754396    8.83939967941953
C        10.57279671036348   12.63714748701886    8.77575302960260
H        10.01603647654282   12.40484817914820    7.87660472892564
H        12.45090452423919   11.98809097273509    7.98892814085240
H        13.70353714287446   12.54099241713379   10.03683337190128
H        12.53310622457703   13.50653891400730   11.98274542290922
H        10.07708679820908   13.90911609676739   11.86103660320296
P         8.01408769760151   13.84016753482096   13.22320387943394
N         6.67438957797797   13.66556171518739   14.30548030787716
P         5.38403373835179   13.59372850859428   13.20026628957586
C         4.24773317460001   14.88661087532176   13.80852783036404
C         2.86643890228678   14.73533890891313   13.74937885744502
C         2.03798555535535   15.77052795345665   14.14236875644811
C         2.57852118894770   16.96660898878265   14.58552469086384
C         3.95385808384130   17.12868716310544   14.63226991797561
C         4.78526215944260   16.09709971610053   14.23971850651194
H         5.86065028813192   16.22842558725459   14.26386207806356
H         4.37866697402359   18.06313947857906   14.97042931311898
H         1.92860133530646   17.77363904215237   14.89067066325851
H         0.96539951148323   15.64547347565863   14.10076076240238
H         2.44374007653729   13.80193278672134   13.40411135416513
C         4.48646739512745   12.08640534936791   13.68934646473244
C         3.61556929348742   11.54981889941087   12.74627830237736
C         2.94467014956510   10.36965649239837   13.00492530765750
C         3.15063156623357    9.71266217566374   14.20881342453278
C         4.02124548188780   10.24069687187822   15.14874329735762
C         4.68924412123860   11.42548007346413   14.89347009641856
H         5.37296300342838   11.83497025587525   15.62389832266944
H         4.18188695911056    9.72348236821885   16.08422004387679
H         2.63594601881495    8.78449434207906   14.41166008864839
H         2.27360365774782    9.95503621654767   12.26590372239767
H         3.48017858729237   12.07070066799615   11.80780620854519
H         6.62388942359844   14.05197438313583   15.24604991873644
C         8.69092658420966   15.47731578722070   13.69142577022391
C         8.99557430260210   16.38321559474231   12.68491769939715
C         9.44830930043977   17.65115899614739   13.00117525763463
C         9.58765218276442   18.02263083160219   14.32831497410063
C         9.28584126743865   17.12165258123532   15.33808330385105
C         8.84347363465560   15.85063013190622   15.02312593313715
H         8.62728817136654   15.13815243495769   15.80988366060897
H         9.39887813179192   17.41246453798381   16.37305186894490
H         9.93282891448859   19.01524190619514   14.57915210747172
H         9.68674888337863   18.35308339881652   12.21499488366249
H         8.86256868039849   16.07530219184286   11.65641591653515
C         9.19568319203377   12.78880720385058   14.15848908475277
C         8.72488820949111   11.57558212582495   14.64759735191692
C         9.55649390002507   10.74027234399031   15.36827884432381
C        10.87738727877847   11.09622805640890   15.58445226105669
C        11.35854569636007   12.29545372269262   15.08574929580747
C        10.52314236630775   13.14074294270744   14.37904129295840
H        10.89972660506830   14.08812285040109   14.01658915879129
H        12.38816609051713   12.57713727567576   15.25675635163844
H        11.53102765845801   10.44224676081140   16.14348103225972
H         9.17456987519928    9.80797038568827   15.75862533164775
H         7.69621050567521   11.29742117913542   14.46167171952529
C         5.35924323568521   14.64873105220557   10.36504271240157
C         6.25529235845611   15.54312095868296   10.99107877749088
H         5.88771666817169   16.18261705365245   11.78907295068418
H         6.97318772045188   16.05437852100118   10.35438760161370
H         4.33347415412829   14.61959679146249   10.72961180685285
H         5.42149728068147   14.53539828396979    9.28613072570753

