82
CSD_code = FAPSIB | q = 0 | S = 0 | Stoichiometry = C35H43FeP3 | MND = 5
Fe        9.74599072843318    7.56650081232349    7.35412861128978
P         9.38771589436715    9.00738348007969    8.86322392421037
C        10.65701881786441   10.09395951719098    9.60159552103707
C        11.40547778972805    9.58523944433277   10.66163388048132
C        12.46725030003710   10.30040545197242   11.18042509441342
C        12.80760721852374   11.52913021550703   10.63572107595393
C        12.08104861006457   12.03508185810209    9.57075986678183
C        11.01598043154595   11.32046974155956    9.05199470897289
H        10.45451480616382   11.72456287798274    8.22040016550821
H        12.34734103584197   12.99154543971639    9.14226020958147
H        13.63863408693458   12.08948369932749   11.03878499981425
H        13.03484262384405    9.90109220256337   12.00909789561651
H        11.13504447882373    8.62323030591011   11.07740749247110
C         8.11618036798791   10.25033185443033    8.24994437094264
C         8.19528903055323   10.35335724214772    6.73215722625853
P         8.40168284330641    8.62029381843384    6.08175528009967
C         8.68311075038947    8.86126990980891    4.29922354046310
C         8.74553611206286   10.07459436248412    3.62466993140763
C         9.02263114885463   10.09664647749410    2.26770328432994
C         9.23549615877615    8.91686938477625    1.57546387102586
C         9.17704400425963    7.70246412361350    2.24283964278927
C         8.91027154839927    7.67916306063501    3.59694953757611
H         8.87556101044647    6.74519459260084    4.14473883733872
H         9.34524041059381    6.78050566798518    1.70414375028313
H         9.44930863771298    8.94282483386569    0.51684241309874
H         9.07062949541300   11.04251918482733    1.74659754082598
H         8.57460723237226   11.00327230286457    4.14987016961118
C         6.62856705173706    8.16148382750122    6.06212898275527
C         5.76525005752086    8.46972373986766    5.01696051998158
C         4.42575094151853    8.13561918629144    5.10764335437575
C         3.93740745093564    7.50466465451089    6.24040730773482
C         4.79292421295629    7.19999329987767    7.28689848536691
C         6.13347779095364    7.52252972532169    7.19332979877235
H         6.82517853214172    7.27295054307614    7.99183317771865
H         4.41474567977198    6.70778735458116    8.17178985549122
H         2.88992493939585    7.24761210500729    6.30528077296293
H         3.75780329510455    8.36991066320053    4.29074332697510
H         6.14256090856235    8.96407819703899    4.13197409227820
H         9.09035487356517   10.91074708074278    6.43529905677965
H         7.30565249529858   10.83652584633093    6.31395428879958
H         8.22958389707150   11.22193101626784    8.74004170885618
H         7.14071060646567    9.83481038446069    8.53315198661083
C         8.52013748600104    8.50638521745396   10.39672370565419
C         8.11345340029099    7.18588133023649   10.52892686860611
C         7.41412226410625    6.77786189107717   11.65078177417274
C         7.11748904439647    7.69220461139007   12.64778869688465
C         7.52095772217272    9.01251304807361   12.52099818065266
C         8.21868578160765    9.42208561468731   11.40029627031667
H         8.54070601930818   10.45020549187705   11.30177650489299
H         7.28992779339473    9.72395053848653   13.30126403746279
H         6.57352990776015    7.37699824874562   13.52660256311075
H         7.10151133271730    5.74786064708195   11.75108998475649
H         8.36585464828083    6.48819176833780    9.73724911200300
P        11.67648942606120    8.16669269836321    6.65421301797559
C        12.22299622268350    7.06618313129513    5.28124166010260
H        12.16798114191150    6.03175688696018    5.62020666344495
H        13.24005820496965    7.30247110646318    4.96747764038118
H        11.53838366193438    7.19618404254124    4.44263487077063
C        12.00328794177540    9.79031991031238    5.85210564384213
H        11.93728070657238   10.57493320819010    6.60522962832487
H        12.99428014871185    9.80442334122972    5.39735455034018
H        11.24534221251567    9.96091916608965    5.08649418131276
C        13.17163480359174    8.08624837371191    7.71984150562817
H        13.03904870201591    8.75896154634835    8.56663371467879
H        14.06333686511185    8.37004930484213    7.15987533019818
H        13.27928098376774    7.06917581404575    8.09235763772940
C         9.14554013421687    5.79846534771351    7.10529698809869
C        10.13980239242420    5.82112516965571    7.95331000740709
C        10.99264828499383    4.93927349007035    8.78592961841364
C        11.41445577929507    5.59893766391060   10.09598559246862
H        12.17567278406743    5.00865912047791   10.60362747079337
H        11.80735934675157    6.59279548137754    9.89268364831967
H        10.55831998358097    5.70528078740331   10.75930436079143
H        11.88643465461622    4.69316705393628    8.19984882288433
H        10.46417375942891    3.99945301920257    8.99355658546391
C         8.22010830858526    4.83001147325550    6.45864952588496
C         9.00956886205382    3.84259864486464    5.59717980099591
H         8.33973651309262    3.12492101517616    5.12635544780349
H         9.73165347687381    3.29966756589110    6.20434800837672
H         9.55355182817322    4.37258835872271    4.81638919185679
H         7.68369444900023    4.28006048508600    7.24227087945473
H         7.47225471488771    5.34077889880755    5.84273075010272

