53
CSD_code = FAPSOF | q = 0 | S = 0 | Stoichiometry = C22H25Cl2N3Ru | MND = 9
Ru        9.40278175403256    7.64759409525536    1.27147728136820
Cl        9.59346347392242    8.02979377825668    3.58964822206428
Cl       11.37087575703965    6.35698699625825    1.30550190181902
N        10.64867155404328    9.22810989081189    1.11737162570926
N        12.40692668900193   10.49582401304950    0.75483131145582
N        18.46557232244944   12.47691379809873   -1.41976799649644
C         9.13562257434091    8.27884017541104   -2.04947104638354
H        10.08387471308404    7.78408563906471   -2.24387729086356
H         9.33433135147453    9.34397671627344   -1.96179986028425
H         8.47761722876836    8.11865456015050   -2.90617625657776
C         9.36745987389014    5.41816609046168   -1.36410734109820
H         9.38104342777099    5.77890464019481   -2.38823266739916
H         8.87509206499952    4.44874896131330   -1.35409871324837
H        10.39652857353994    5.28265699282504   -1.02259950993850
C         8.34348369777441    4.43893411883441    1.15298422156674
H         8.25054992798905    4.28848247031861    2.22433760979072
H         9.35532327585856    4.14886164324059    0.87759645975490
H         7.63535505995037    3.78495885047064    0.63986536476766
C         6.67565588376961    6.22944692825193    2.85716871978031
H         6.48535078619921    5.16175172579337    2.79867498814162
H         5.72365074879173    6.73362983449112    3.00390196017939
H         7.30372122868737    6.42722768308694    3.72860057534322
C         6.45505662706587    9.02580775967783    2.20928168874751
H         6.65476049256831   10.07297662236117    2.00301140080675
H         6.78994115905647    8.82496270990961    3.22577404728874
H         5.37802647893405    8.85814458527418    2.15285763321613
C         7.37639030152312    9.98870224951146   -0.45516366042050
H         7.26751154230008    9.97993521568767   -1.53745405556368
H         8.14802891922210   10.71459433970555   -0.19432290113409
H         6.43350748904035   10.32758951360845   -0.03456116701342
C         8.51090114743516    7.73858206138245   -0.78719040396663
C         8.65792963518784    6.37519085418045   -0.44881648202648
C         8.10631690952796    5.87985346907632    0.78353722261883
C         7.35450473429721    6.73674769176996    1.61474226842549
C         7.19419568150203    8.12310053364235    1.25959101814865
C         7.71609866040745    8.60528503228569    0.04151891716563
C        11.83267377012207    9.28572199929311    0.54943267576810
H        12.30791436829879    8.45592106919688    0.06139170466264
C        10.43244413862695   10.44221526858818    1.70345779530276
H         9.53700797883889   10.64194513046073    2.26115736654175
C        11.51803913533523   11.23355577459559    1.49267857312091
H        11.70594031565020   12.24608185729391    1.78228894126817
C        13.67022252856236   10.90058932834942    0.30996862668172
C        14.19713402284492   10.37068928807072   -0.86734355856019
H        13.62661720926043    9.65540912111706   -1.43817717864102
C        15.44049513930387   10.76965058351414   -1.31016924522759
H        15.85088254916696   10.36312093354560   -2.22203916536151
C        16.17156996006724   11.70950446294085   -0.58194845140678
C        15.64649634283638   12.23708404994261    0.59855327623862
H        16.21959858851686   12.95598904784170    1.16417235375743
C        14.40464530605061   11.83273490870906    1.04137927066477
H        14.01184755135104   12.22289683838654    1.96699263367399
C        17.44084934973430   12.13046809820586   -1.04163070419870

