63
CSD_code = FAPTEW | q = 0 | S = 0 | Stoichiometry = C28H28Cl2NP2STc | MND = 6
Tc        1.98106150273451    6.47969495049591    8.56399851487847
Cl        3.88476859569625    5.17476347430964    8.34047679001803
Cl        0.75761250880745    4.70736922081942    7.77155510322847
S         2.36437926809748    6.68388260814596    5.69528816658424
P         0.10188665670418    7.80669378205118    7.91571376294539
P         3.72411827073310    8.10118592321986    8.34003450882400
N         1.70557821988313    6.69770281916265   10.23113242149130
C         0.36366357172604    8.56399866227996    6.24898388796047
H        -0.55882989488106    9.03705753265007    5.90006192689213
H         1.11725886399900    9.35064402241859    6.38190479650143
C         0.81908291645175    7.53074324658978    5.23128533804629
H         0.96263171936861    7.97026979574947    4.24173800958121
H         0.09448450642756    6.71622200679368    5.16074295502097
C         3.60804065525693    8.02305691237344    5.52727946149827
H         4.14263734900261    7.85436674063991    4.58974842793638
H         3.06981681353699    8.96844849793166    5.46699063880206
C         4.57322342191681    7.99056508945313    6.70337414794628
H         5.31083143328470    8.79398010427709    6.61371561859552
H         5.10554568117117    7.03293712193814    6.72175569384378
C        -0.36241048901911    9.24418322149232    8.93794889157732
C        -0.33447644742490    9.05117454237950   10.31657249498126
H         0.04310790498325    8.11034451006028   10.69777458689161
C        -0.73977106953498   10.05867815725650   11.17092719768121
H        -0.71772964969898    9.89926846521700   12.23841070368642
C        -1.16552588106323   11.27362920954419   10.65754264394915
H        -1.48036000363032   12.06476603148774   11.32202581861367
C        -1.18164117358946   11.47457415297926    9.28848761000903
H        -1.50653048323185   12.42246686750363    8.88462466759211
C        -0.79047453233863   10.46386648769221    8.42731629592150
H        -0.82205497557774   10.64555030749144    7.36384487668380
C        -1.51451302562300    6.97214088676451    7.82128604781340
C        -1.82051661828664    6.18461362024423    8.93055254958439
H        -1.08298477750785    6.08714633182213    9.71838535485216
C        -3.02367844106799    5.51064565531769    8.99273187320457
H        -3.25176819397469    4.89328712772596    9.84833673957374
C        -3.92965730897448    5.61393696274152    7.94790940179286
H        -4.86720231945136    5.07948952639823    7.98920602785321
C        -3.62816386775963    6.39330872777624    6.84532649342936
H        -4.32977678282485    6.46791933807699    6.02700433394137
C        -2.42442525961641    7.07549621295007    6.77744288638356
H        -2.21004537553660    7.67161954144568    5.90176057928297
C         3.27844885767652    9.86244149119019    8.52992405161708
C         3.47108394158700   10.87779607381676    7.60235582872734
H         3.95505162794443   10.68478498748708    6.65491579940701
C         3.05125492764020   12.16632279406796    7.89175928792656
H         3.19834114079579   12.95154611721128    7.16396263135221
C         2.45407020736011   12.45073505357796    9.10684765860682
H         2.13252184337886   13.45797729646334    9.32557115460764
C         2.27332420089330   11.44346215402233   10.04277677154022
H         1.81455217245859   11.66432289624725   10.99404611225670
C         2.67232096795889   10.15505850292042    9.75097709838954
H         2.52110415239482    9.34365093154402   10.45216387547107
C         5.10601304241495    8.02313090240727    9.51876808883628
C         6.25559265128252    8.78381433026306    9.32436181385472
H         6.35038924631929    9.42640901051335    8.45981235145818
C         7.28331240535353    8.72814169282681   10.24752252583799
H         8.17867843651655    9.31160531601762   10.08887434015075
C         7.16496512972958    7.92838599556264   11.37267637549679
H         7.97350814422702    7.88341885434297   12.08733943765914
C         6.00877212822667    7.19517254598485   11.58299450050181
H         5.91049248560006    6.58054551796170   12.46484463963846
C         4.97676183753844    7.24348387707099   10.66270926805041
H         4.06654716347706    6.67610526289613   10.81359814273257

