27
CSD_code = FAPVOK | q = 0 | S = 0 | Stoichiometry = C10H13Cl2NPt | MND = 5
Pt        2.71467630763478    5.08495190412680    5.67087858999878
Cl        3.40401483761526    7.16390833289292    6.45608207419694
Cl        2.14483779601701    3.01578478949358    4.77191239016807
N         4.48641690349450    4.88092072326672    4.82944890806271
C         0.67079612473384    5.59205722746769    5.94429371860573
C        -0.06308892042894    6.18663824223372    5.04220798136832
C         1.09198201432075    5.00042617851540    7.08963316514295
H         0.85611540160105    3.95511122580895    7.28315994757124
H         1.34327123916468    5.60959194491426    7.95639054110385
C        -1.51011128599403    6.50796293530373    5.28934068811141
H        -1.66692441620316    7.58254544126874    5.20951633366917
H        -1.82154103631723    6.17721191298990    6.27571073467905
H        -2.12774532146257    6.01734309217721    4.53872488671300
C         5.57091527769231    4.83782042703498    5.60379708932741
H         5.41577372839357    4.95944261393986    6.66966663867300
C         6.83997078598424    4.65990691323119    5.08362774760071
H         7.69044308862566    4.62805319463220    5.74554901796408
C         5.86075806163967    4.57647843591781    2.91391217789041
H         5.92909251625655    4.47748513259248    1.84245531782292
C         4.62501302904360    4.74951978684176    3.51040026533985
H         3.71840125390840    4.77035151771794    2.91790237161073
C         0.49848006388958    6.57911336852559    3.70393121523296
H         0.01299807681693    6.01017091588985    2.91252703160972
H         1.57559528823860    6.38483239706756    3.67249195812643
H         0.32885132851354    7.63909455528577    3.52386509427988
C         6.99338918746976    4.52900632099987    3.71195392988614
H         7.97101866935196    4.39227046986500    3.27602018524419

