86
CSD_code = FAPVAT | q = 1 | S = 0 | Stoichiometry = C45H32F6IrP2(1+) | MND = 6
Ir        6.09631191765728    4.99508664086192    9.36810107446030
P         5.62061481247726    3.12542044708590    8.10043421252639
P         6.69977669344218    3.82302042040984   11.31699320911652
C         5.16267835376651    7.34692005452363    9.01054053377102
C         5.79284880868474    6.62059387000377    7.85496308818904
C         7.16260901671785    6.44847715688477    8.06919791184883
C         7.44062726253941    6.80153877077463    9.42103714146277
C         6.25541745872661    7.21806548141337   10.02210074081301
C         3.87268428459961    6.60129225606190    9.48784905426546
C         4.78123967907067    8.82022765746892    8.65796296226335
C         3.74709243499502    9.13478448269397    7.72806260541392
C         4.07057390202563    5.33926101514841    9.69129154314556
C         4.16002222713971    2.08591608753670    8.40617996896311
C         3.78068911787582    1.15939335016127    7.43382259627690
C         2.67895024729312    0.35154068420501    7.63456244362812
C         1.95659374090416    0.48704458051017    8.81078015568036
C         2.30281503455406    1.41573941515045    9.77907581228610
C         3.40935473715273    2.21756518475881    9.56905937147801
F         0.89108016630254   -0.29437765434376    9.01075065468037
C         7.02641613411618    1.96883951013342    7.98256958689582
C         8.29142319095173    2.53650093719886    7.83116331550714
C         9.41930722437661    1.74643548773749    7.74723939273401
C         9.26776993804431    0.37036673176167    7.82394543039577
C         8.02439362573306   -0.21928233349059    7.97701453802908
C         6.90323788576594    0.58633560592930    8.05946814608570
F        10.35591859527967   -0.40298118876772    7.76454137334541
C         5.30928489196010    3.61851466058282    6.37582970905988
C         6.21901757681817    3.43469070130308    5.34095400112631
C         5.91348733188559    3.86993928994407    4.06356504649012
C         4.69622887647635    4.49117549071939    3.83922446740553
C         3.77426172644674    4.68768058790025    4.85789227469151
C         4.08904720519584    4.24975223774807    6.12770311021261
F         4.40175065541853    4.91738221631100    2.60706700153256
C         7.15575698111679    2.04855616462592   11.26078740115501
C         8.46310054317109    1.57384999926025   11.26336101350437
C         8.71561537681016    0.21438641464543   11.22905310280467
C         7.64912418153360   -0.66668745379232   11.19574933845884
C         6.33694357027832   -0.22068780665617   11.21071961127992
C         6.09920614266409    1.13770892789899   11.24115093190294
F         7.88954043865826   -1.98126840196150   11.14207288866634
C         5.63178589976991    3.81028273465181   12.79197189203809
C         4.43661312282036    4.51978049668991   12.82080539676328
C         3.64537883867485    4.50920513280962   13.95521445484710
C         4.06793916565780    3.78459948161548   15.05701500614876
C         5.25700822264212    3.06924881009787   15.05144876856117
C         6.03667766333109    3.08332280568861   13.91324874843699
F         3.30923225720099    3.77149228753836   16.15720999716261
C         8.22407604446712    4.63137653654319   11.90489624521178
C         8.29314597014970    5.30410262448397   13.12033698510702
C         9.45772700538162    5.94836210957007   13.49791797725708
C        10.54988100991034    5.91692660053872   12.64731623871363
C        10.50111590995444    5.27130093988446   11.42042458131547
C         9.32963439607299    4.64098747295384   11.05167975261644
F        11.67711972387431    6.53872876991302   13.00641541417663
H         5.31343782852631    6.56883975102636    6.88743822718134
H         7.88978109525527    6.18650657903589    7.31814977151560
H         8.41700801850033    6.83148051235639    9.87649139605575
H         6.18344929281939    7.63924293068928   11.01458162809888
H         3.08370657587931    8.29689945186670    7.47626283562050
H         2.96239811147928    7.16708270187841    9.59109852269735
H         4.35166809032871    9.31522484641481    9.54852157881895
H         5.69394528927571    9.38797071053400    8.44460568753144
H         4.34456587471581    1.07827869873179    6.51501511455666
H         2.36905266047304   -0.37176470695881    6.89718350606153
H         1.70416837164399    1.50390515800785   10.67170917674689
H         3.68418941377026    2.97731272266436   10.28610876369330
H         8.38226134113403    3.61285425393695    7.77037434684097
H        10.40399734180063    2.16909828624154    7.62293979158955
H         7.94789622012447   -1.29362967293543    8.03211535873295
H         5.93247127414283    0.13413719330755    8.18768857577142
H         7.16184808368504    2.94095912273017    5.52424838787552
H         6.60098278498354    3.73153716299734    3.24435385196019
H         2.83562672032885    5.17287840623128    4.64168449031952
H         3.39578517977932    4.39040485980734    6.94581540242467
H         9.29787601816392    2.25451986030106   11.31503850430259
H         9.72447444995812   -0.16686530435978   11.23523044574507
H         5.52805327757043   -0.93360021806766   11.20480040714854
H         5.08393614749712    1.50200645132884   11.26626785547099
H         4.12349621817334    5.06755632130627   11.94293791679290
H         2.71299191015981    5.04932446290444   13.99602274428390
H         5.55200590765537    2.51653047549626   15.92908195811811
H         6.96570758123500    2.53162705605565   13.89109020757689
H         7.43585278823978    5.32799304517150   13.77589515659496
H         9.52842678526890    6.47174573746227   14.43792592447873
H        11.36812808492058    5.27803249501246   10.77845879335979
H         9.26106404394067    4.15577616555214   10.08682545213696

