87
CSD_code = FAPWOJ | q = 0 | S = 0 | Stoichiometry = C29H55Si2Ta | MND = 11
Ta        0.13327868142863    6.82510090172689   14.47254348500190
Si        0.58840898795963    8.51845049816738   10.04510272031477
Si       -1.02692473283614    9.97809155860103   16.76102443397887
C        -0.21850346470823    8.65049690916991   11.73501533293245
C        -1.58015394568020    8.35703613801685   11.99687599974438
H        -2.28744514934682    8.05717049488714   11.24306386284994
C        -1.89106218054615    8.49699325675355   13.34816949181713
H        -2.87623898643688    8.40796292838386   13.77635196029050
C        -0.69869151331814    8.92705130118593   13.99696501080849
C         0.33698661653542    9.00255427820552   12.99119766795651
C         1.53567921103337    9.38989123964123   13.65885433940998
H         2.49350346263859    9.58272581461932   13.20640682041517
C         1.25020748818551    9.51552575130743   15.00406687836192
H         1.96353361949200    9.82130674538207   15.75124524747184
C        -0.13094697269395    9.20600614646422   15.29136972498496
C        -0.10333250145976    9.90911022641144    8.89412011446987
H         0.37680434976253   10.84415325139681    9.20014874938043
C         0.24090305443574    9.68267848291244    7.42358509591170
H         1.31641573783692    9.61581019868679    7.28074711434725
H        -0.12909778740065   10.50693239902337    6.81367051840747
H        -0.20787863216465    8.76394077285953    7.05415172362078
C        -1.60609026493066   10.12507666204535    9.05425591628889
H        -1.85167953369271   10.34480313087820   10.08976606210380
H        -2.16478375059081    9.24398479572497    8.75051164667967
H        -1.93730074435710   10.96142130697457    8.43883188079935
C         0.29895827446800    6.74715034564471    9.32136049005743
H         0.91718613212410    6.64346886816313    8.42370226345027
C        -1.14196643475484    6.46976138710993    8.90383728698096
H        -1.48468623480893    7.18549999987929    8.16231472975707
H        -1.80618468265028    6.51666724166946    9.76230884080202
H        -1.22615206502154    5.47247879348623    8.47118326367307
C         0.74122345961337    5.67535428848539   10.31653423474570
H         1.79367662780071    5.78244823833383   10.56323974508856
H         0.59008241366053    4.67934784370480    9.90080964017040
H         0.16351731071896    5.75033154854876   11.23871767813530
C         2.49268882138878    8.76645176819074   10.26247280582898
H         2.77845457864088    8.28569636109227   11.20368726383460
C         2.85671922160587   10.24486600992421   10.37709908418994
H         2.23403499476872   10.74560642148818   11.11411408467874
H         2.71964188948617   10.74386669561971    9.42072974611710
H         3.90053687270429   10.36462149383433   10.66858804174022
C         3.33436217696115    8.12493830656357    9.16261063604768
H         3.17417888124991    7.05128585459804    9.11724381420155
H         4.39482876283297    8.29963515845866    9.34621564248561
H         3.09108802549194    8.54756096462019    8.19075124067223
C        -1.87333798471486   11.59667061016601   16.12022128103659
H        -2.36883550024174   12.08243738950235   16.96728872616290
C        -0.83604418983792   12.57243578943565   15.56609360490675
H        -0.11204512918884   12.85036827462373   16.32719322828714
H        -1.31963425524610   13.48123556334248   15.20937742531475
H        -0.30068390587891   12.12423276626430   14.73214105481332
C        -2.93530719530019   11.34034934151230   15.05457704561588
H        -3.70139287507909   10.65834264867940   15.41444356022464
H        -2.48316501324939   10.91238402364801   14.16397533695985
H        -3.42174073186830   12.27323992368198   14.77026335512335
C        -2.30317800706988    8.81907536145559   17.64514607795109
H        -1.75081461643526    8.23113119013051   18.38555882711911
C        -2.99370327117718    7.82786637145943   16.71259438391411
H        -2.26768873256461    7.21812744349921   16.17360370120578
H        -3.61184294466042    8.35429308883498   15.99021473169102
H        -3.64281720406426    7.16226111977937   17.28192909967743
C        -3.37072770598162    9.61003037590817   18.40138398942036
H        -2.92497684598126   10.30911816383233   19.10200688401622
H        -4.01769670291399    8.93480469389312   18.96111998394742
H        -3.99251605368907   10.17403034563013   17.71109282718610
C         0.31943326515344   10.50348830475069   18.04660261140047
H         1.04983873691270   11.11950793161069   17.51370224848401
C        -0.23382717583765   11.35514450236705   19.18575031859489
H        -0.78908234319667   12.20939761472178   18.80763822782691
H         0.57774053761550   11.72904088026783   19.80992052467606
H        -0.89214159371586   10.76555370773029   19.81903820855750
C         1.07273822321091    9.31151006745071   18.63050558496728
H         1.51622752621677    8.70940012017421   17.84347657582241
H         0.40304180014103    8.67924306093984   19.20852331923031
H         1.86727147750550    9.65041828964069   19.29492485783142
C        -1.26407972016707    5.05696407864952   14.14942234869924
H        -0.74335168901934    4.10035006827217   14.09082309224526
H        -1.79284707509227    5.19138655958817   13.20533897299223
H        -2.02230522528938    4.95595283097283   14.92776120505384
C         2.09128249818734    6.03348108374180   13.62893411495673
H         2.01388906432367    5.00215243937128   13.28722989151336
H         2.88903041062456    6.07442819215029   14.37089247104120
H         2.40408302411120    6.63795868887239   12.78032705850622
C         0.68416784692677    6.18574991985841   16.59880999822171
H         0.71927404759978    5.10131604399382   16.71091915395386
H        -0.02343434997797    6.57203909630369   17.32888617008669
H         1.66821950347899    6.56986925445401   16.85988558977013

