64
CSD_code = FAPWAW | q = 0 | S = 0 | Stoichiometry = C23H36ClIrNPSi | MND = 5
Ir        0.17099098354781    1.02110715418230    5.89576695738476
H        -0.54919289611666    1.30254982390382    7.22598933823985
Cl        0.63608027872933    0.79637838118983    3.59397170404391
P         1.57972498097994    2.75977153222255    6.40915729200017
Si        1.60470012724198   -0.32604866157671    7.11053325816565
N        -1.03788186439940   -0.89888872940015    5.81694573916232
C         2.99002564418707   -1.47718050806178    6.40007233689983
H         3.97888612813105   -1.15704176403282    6.71196535050778
H         2.97386684086821   -1.47789140938937    5.31536422696631
H         2.84443571607972   -2.50005715447200    6.73514133729528
C         2.46138920910542    0.91735009758972    8.30009654077462
C         2.42562511306280    2.27876874608402    7.97125198022403
C         3.04761916077163    3.19877394993021    8.80682914243366
H         3.03339837613568    4.25072323132733    8.56749925876233
C         3.69418806431857    2.78589519179886    9.96024686404259
H         4.16582340896882    3.51524778259066   10.60318222980941
C         3.73927945357339    1.44148774828255   10.28168577001369
H         4.24726608318614    1.11429054927715   11.17729259000655
C         3.12914624893542    0.51949350206959    9.44758769596785
H         3.17250432522455   -0.53071462838995    9.69479152671829
C         0.24748975169097   -1.48774543628835    7.81612298494690
C        -0.94924519074866   -1.57619869001264    7.09887412438731
C        -1.98957148444628   -2.35320570080595    7.58443208424805
H        -2.92066371058009   -2.43840429036472    7.04449171216626
C        -1.85300155123019   -3.03644452903731    8.78272136230542
H        -2.67536093935367   -3.63081112884889    9.15323589944949
C        -0.67042541066793   -2.96120641973260    9.49320844095920
H        -0.56176723374907   -3.49555782663411   10.42546162149586
C         0.36976636646629   -2.18907245976791    9.00333915581197
H         1.29181736636885   -2.11996966234367    9.55940096604763
C         3.07072142561411    3.12245164932871    5.28725384739590
C         3.70928947306141    1.75450711407937    5.04208130575762
H         4.03936919041552    1.30876783807726    5.97833918393177
H         4.57169569981793    1.86037775145944    4.38542164080611
H         2.99848394678832    1.08636435800050    4.56575357888725
C         2.56779537448110    3.67691515792845    3.95684888258646
H         2.17468466543173    4.68624578539205    4.05361007825708
H         1.79125589611821    3.02929670940662    3.55651827234638
H         3.38421689986039    3.70365905368943    3.23581094876463
C         4.13608469262002    4.03700904037621    5.88938264377124
H         4.53954687974499    3.61203986767116    6.80513256240084
H         3.76635831180070    5.03539279452384    6.09366411509007
H         4.95430889789130    4.12828950291824    5.17490490944185
C         0.59734422593199    4.35369747337980    6.77475709628079
C        -0.03584691174685    4.19423007773977    8.15804269286305
H        -0.47424739061958    3.20432598650799    8.25883375788031
H        -0.81978614356982    4.93820585550455    8.29331915121471
H         0.69733378175776    4.32234611673761    8.94943168557900
C        -0.50966121788931    4.35310869200836    5.71518344902038
H        -0.09542938641088    4.45293088116037    4.71416980472032
H        -1.20381171173111    5.17576841958454    5.88475076957582
H        -1.06901917493629    3.41646921737056    5.76388445474380
C         1.32687652215886    5.69485954617294    6.71653570033052
H         1.73861445453628    5.89146163652570    5.73069418547451
H         2.12072586270704    5.76269906393949    7.45496528214251
H         0.60960510360227    6.48671333188987    6.93626457772958
C        -0.57663506240636   -1.85409706788649    4.80412375503701
H        -0.52308303759357   -1.36592675611657    3.83237462502199
H        -1.25842677449576   -2.71132491572108    4.73983645057018
H         0.41691436639728   -2.21221085403429    5.06427581028999
C        -2.38788112705021   -0.45337748418654    5.46737930132517
H        -2.32682220271872    0.19267366181824    4.58924751613355
H        -2.81868813857781    0.10725456537878    6.29650356394139
H        -3.05320073728273   -1.28802276191434    5.21374490944593

