81
CSD_code = FAPXEA | q = 0 | S = 0 | Stoichiometry = C27H49Cl2Si2Ta | MND = 11
Ta        3.03798050224268    0.71676045613136   -0.71306284555130
Cl        3.80289298385497    1.94506950655249    1.01930052953608
Cl        3.72717255007618    1.85793642478520   -2.49601943210156
Si        4.20419580582624   -2.37905576621594   -2.18122695802286
Si        2.67590101364590   -1.33760149766602    4.60208146645231
C         0.85355342072992    1.39070035956800   -0.82236138230780
H         0.23818258363972    0.79792631087389   -1.49542497075731
H         0.80137430120656    2.42866241772592   -1.14896729354278
H         0.40643055440590    1.33381379616520    0.16832134131531
C         5.29873070836004   -1.53232316361206    1.38051912477150
H         6.30097008686005   -1.52811108373510    0.99151518514871
C         4.97981713262329   -1.51160477250551    2.77086227104660
H         5.72841745116414   -1.49504894188529    3.54093593075785
C         3.61319244207809   -1.51414883273648    2.98495320495432
C         3.03360714419220   -1.50870635801225    1.66954030648249
C         1.83765094686278   -1.42436868315109    1.00458050215331
H         0.84949726090073   -1.40177934367827    1.43244742849999
C         2.08824115516918   -1.37884789370233   -0.41172548944883
H         1.35455182386631   -1.77347509293776   -1.10213362093750
C         3.52807813474564   -1.48980004253159   -0.65233086901331
C         4.11332736982663   -1.54170920794207    0.68445562054668
C         5.65721427805203   -1.35198680759291   -2.94646290319809
H         5.20826768197827   -0.55763090210464   -3.55378666708872
C         6.52967046670341   -0.66437075873338   -1.89669013493838
H         5.94181304981697   -0.01382013476015   -1.24702087737968
H         7.29098192611929   -0.05517353299346   -2.38309751000024
H         7.03573641970659   -1.40075151558939   -1.27864602830100
C         6.54522456281889   -2.18728288768921   -3.86880912032298
H         5.96420500406216   -2.65511433877573   -4.65762681241585
H         7.04881322511188   -2.97238426439816   -3.31133987316186
H         7.30656271470182   -1.56180197244153   -4.33330000147566
C         4.70001123655344   -4.18083062276384   -1.69809226371997
H         4.99723061028034   -4.70358895740604   -2.61255482938673
C         3.50856358796388   -4.92586215839530   -1.09610615276118
H         2.67644119885784   -4.96581856612897   -1.79349439042022
H         3.17435312834672   -4.43141311806844   -0.18734873765613
H         3.78910250710694   -5.94706203670474   -0.84302984846140
C         5.87662954245275   -4.25250358264043   -0.72866884409594
H         6.75174515988915   -3.75038339264557   -1.13139275481413
H         6.14344083892815   -5.29107116022801   -0.53683077702635
H         5.61532396739438   -3.78960111389559    0.21830073622862
C         2.75588120504428   -2.49461020613128   -3.46506777617565
H         1.89965589900238   -2.94456633625955   -2.95358670507671
C         2.31218535920646   -1.12727371489371   -3.98188925548108
H         2.04899139786795   -0.45366571578602   -3.16243654061500
H         1.44375833392968   -1.23143369174790   -4.63146540997085
H         3.10554198655116   -0.66186118476578   -4.56158887858480
C         3.07876199910558   -3.39689037627783   -4.65473786261373
H         3.38928177614583   -4.38391089511181   -4.32513541124026
H         3.87425202497613   -2.96808268326575   -5.25782975848844
H         2.20321321990664   -3.51220430380921   -5.29254841387870
C         2.62197249787777    0.55739266752776    4.96882985270086
H         2.22336528778134    0.73427794878180    5.97222149794736
C         1.71471566371547    1.28132346072136    3.97584107053203
H         0.68295085646222    0.95681891403086    4.08343241162582
H         2.03156826871716    1.08158462700413    2.95286692601187
H         1.75044278159236    2.35825307269442    4.13912602615682
C         4.02335836875281    1.15921944180086    4.91450786151721
H         4.68408593747829    0.67622280514250    5.63007799964983
H         3.99706047450256    2.22501170214686    5.14056323910760
H         4.44912534861904    1.03061030308309    3.92209058336328
C         3.41240687452970   -2.33009212847430    6.08987895285713
H         2.84337314824321   -3.26286163625005    6.16348428754842
C         3.24759538911281   -1.59529394030937    7.41952320379390
H         2.20892767323344   -1.33175950036528    7.59968206547267
H         3.83787795519903   -0.68231693700931    7.42911312507314
H         3.58653059565642   -2.22262897745275    8.24413671095378
C         4.87476360899374   -2.72333126203467    5.90860351507809
H         5.00951254612423   -3.29307014640353    4.99348075289712
H         5.21095653124939   -3.33474444516806    6.74628068121556
H         5.50651268329257   -1.83932356537132    5.86580173152148
C         0.87347183224874   -1.97713580640617    4.35481398376132
H         0.39594274974332   -1.36116718743766    3.58848967486009
C         0.02968546088899   -1.84965116774300    5.62044977809865
H         0.01954103988510   -0.82316233770206    5.97972629232293
H         0.42218970705355   -2.48719164576219    6.40881079680701
H        -0.99997981245318   -2.15191683273210    5.42801341470714
C         0.85260455232535   -3.42119044078938    3.86198952532902
H         1.42491004136254   -3.52368670596868    2.94397102787483
H        -0.16884717056509   -3.75046991863331    3.67177886192561
H         1.28525942737455   -4.08525802048146    4.60643790207794

