78
CSD_code = FAPXAW | q = 0 | S = 0 | Stoichiometry = C26H46I3Si2Ta | MND = 11
Ta       14.89267530818266    6.18683078980000    2.77848224269786
I        13.18701512258659    8.13838260128299    3.71721161901288
I        14.70887675096173    4.83734282857656    5.17668960065493
I        12.91244283010500    4.79077481164700    1.50674483154702
Si       16.40392096576662    2.96392125405722   -0.08876658546573
Si       17.08531199489591    9.49033668100619    2.55567231587412
C        16.35102689633126    5.84844503974981    0.78834184330908
C        16.65049013977861    4.46792317395007    1.04110054088581
C        17.21648891974037    4.44393292056559    2.31650363654335
H        17.54053901036728    3.55517881225669    2.83103214379397
C        17.27387432895027    5.74893908837597    2.89492800380292
H        17.86098784836791    5.98592729476621    3.77334714736276
C        16.84316266264294    6.64530960702568    1.88061357168734
C        16.25511128258409    7.95385565531734    1.82055216711409
C        15.53621857406166    7.95076841405406    0.56359506393744
H        15.01781702228005    8.80537888348641    0.16319755313857
C        15.59334155541362    6.71394543176637   -0.05233182042121
H        15.11062650740432    6.46123472391275   -0.98017490397460
C        18.20414339582643    2.41831814917831   -0.53825412328026
H        18.71499970041652    3.30834778489337   -0.92624974866611
C        18.26013468713933    1.35757159248501   -1.63489745382094
H        19.29576721614458    1.16362991539696   -1.91423023842215
H        17.73001220083113    1.67904644363705   -2.52663033106996
H        17.82525582298997    0.42196882880235   -1.29682353722418
C        19.00271684753250    1.93540189125466    0.67098907058262
H        18.52607955048506    1.07527415530292    1.13488113202234
H        19.10083291586933    2.72101295329621    1.41514166832879
H        20.00568008714978    1.63840842687023    0.36613763699027
C        15.46943643337403    3.61224636642810   -1.64642260558383
H        14.66861983107352    4.27250674295134   -1.29656551243341
C        16.38083503171447    4.42674239099127   -2.56439600164505
H        17.11556475990697    3.78462273600698   -3.04292404341140
H        16.92031957749102    5.19518598758533   -2.01484276801123
H        15.80087275322695    4.91099183636857   -3.34980065213582
C        14.77897415904920    2.51258906558637   -2.44842668756541
H        14.26260689048327    2.94301823674859   -3.30576389177194
H        14.04221953420896    1.99573111951820   -1.84014333356577
H        15.49575879125383    1.78558388497991   -2.82186405471490
C        15.29888860943206    1.64906280904338    0.79942984285744
H        14.25661244281449    1.92252670012648    0.59837411355663
C        15.50562466811887    0.23740778752317    0.25195244429702
H        16.49183694416874   -0.13697993697225    0.51678646455715
H        15.40055116376554    0.20914568351680   -0.82844488081551
H        14.76821441765868   -0.43974805872628    0.68083735913817
C        15.46046100951391    1.61382278870123    2.31815335625841
H        14.79022128221528    0.87131307291203    2.74713719751495
H        15.21562908400340    2.57239369484159    2.76833596311288
H        16.47688431866524    1.34852913568367    2.59944712065860
C        15.94768707104033   11.04123118422618    2.70519718179111
H        15.44300031376759   10.99722995655375    3.67614884050260
C        14.85109026548849   11.14805427854119    1.64633536338122
H        14.15047631537596   10.32158163462261    1.71393687134209
H        15.27390806715793   11.17728325197505    0.64457743053283
H        14.28517251662218   12.06589640306512    1.79549317727683
C        16.77806510524323   12.32524643050263    2.67618799376188
H        17.23774395963389   12.46392154126133    1.70046647622697
H        17.56540561384564   12.31572751873024    3.42326615860702
H        16.13942568189538   13.18558044656070    2.87006070323538
C        18.57054616144231    9.79773196940415    1.35323036924573
H        19.08282950874457   10.70137137834843    1.69613189410730
C        18.11834701779878   10.04560237858285   -0.08378905541634
H        18.97532364300083   10.26239922357042   -0.72041646534927
H        17.43499978068261   10.88875868854854   -0.14161841066437
H        17.61522073396868    9.16926834361505   -0.48837491745729
C        19.58654663326339    8.65686134564424    1.37777195828024
H        19.13054485358836    7.72261020279688    1.05322372357905
H        19.99365557472436    8.51261534970175    2.37541506099237
H        20.41481303057639    8.87249748479511    0.70412995456104
C        17.81422547973230    9.03124513266948    4.28885683138828
H        18.47987159499334    8.17066381557410    4.15978275631903
C        16.75735723852317    8.64537905546409    5.32180461128924
H        17.22063863508479    8.47156204657188    6.29200439441273
H        16.23894980314419    7.72881006050723    5.04131119106382
H        16.01735124683641    9.43298041881959    5.44085974168998
C        18.66837275253411   10.16220803617611    4.85854429030626
H        18.04356627743509   11.00777612076252    5.13338748180143
H        19.41433172159819   10.49548531456869    4.14144074472156
H        19.18815155528685    9.82872079133963    5.75607117124047

