88
CSD_code = FAPXUQ | q = 0 | S = 0 | Stoichiometry = C26H58BP2Rh | MND = 4
Rh       -3.07034423536327   -0.71591232792458   -7.55738074735121
P        -1.65919704245110   -2.36106909524798   -6.90172717342665
P        -1.94090546578813    0.64717247703735   -8.97088458946920
H        -4.14678669993544   -1.42059982262150   -6.61476366087221
H        -4.31925708459946    0.24571370458905   -7.80734572732504
C        -5.64426634449585    0.34934238760753   -5.69928694878832
H        -4.84541329829019    0.83751226827984   -5.11967119779704
C        -6.35582778502150   -0.60040042312803   -4.71950597777469
H        -5.58998948663415   -1.24939444715292   -4.28184281124225
H        -6.79797896331383   -0.02691968946917   -3.89749826195766
C        -7.44234377456397   -1.48648822822261   -5.33522834513445
H        -8.36562448654790   -0.91929324818645   -5.43892889331671
H        -7.66182947504867   -2.29875391144839   -4.63322859998933
C        -7.06584332105127   -2.10290141229751   -6.68418433342815
H        -7.96751147519163   -2.53055237164664   -7.13602156068376
H        -6.36966771959272   -2.92998971615237   -6.50861784670744
C        -6.38684465832296   -1.13811422565583   -7.67094433289342
H        -6.13900238566720   -1.73966165700525   -8.55929610617720
C        -7.30939731389314   -0.01142272194282   -8.16872419997351
H        -6.78787175066975    0.49840293445763   -8.98562097944584
H        -8.22631405349453   -0.43769504370358   -8.59017945372322
C        -7.69579636054992    1.03362483855477   -7.11831362839260
H        -8.50897334438205    0.65389060290667   -6.50231319660183
H        -8.09320374033022    1.91257283223676   -7.63819247417971
C        -6.54129979231450    1.48460118315444   -6.22099810111762
H        -5.90179799262365    2.16738699577507   -6.79053695814160
H        -6.95417512782306    2.05422641799089   -5.38128620378844
C        -2.64529945009957   -3.95694331001009   -7.03019486089230
H        -3.43461494273482   -3.79138438737698   -6.28560659375490
C        -3.34009913739182   -4.01405328905513   -8.39074040483288
H        -4.17320043200171   -4.71526756268882   -8.36285584010564
H        -2.65904393726832   -4.32987171380460   -9.17625564983479
H        -3.73205288787758   -3.02057877000587   -8.64196957845305
C        -1.96075751064911   -5.27653754465324   -6.69743735595496
H        -2.71013993323434   -6.06671066598488   -6.64366445741482
H        -1.45566009145975   -5.23032042187242   -5.73514652291727
H        -1.24328782339622   -5.55750665166344   -7.46399359441947
C        -1.24695264885412   -2.30270171896328   -5.07328625051462
H        -0.64024946073721   -3.17441651884593   -4.80832128999541
C        -2.49526697909749   -2.28913144190133   -4.19870985795773
H        -2.21306899436993   -2.15387561633544   -3.15482344523789
H        -3.05582721368384   -3.21799502862730   -4.27328304921468
H        -3.14321151512166   -1.46169131097216   -4.48652556697271
C        -0.45790393826516   -1.01959861834836   -4.82441006537792
H        -0.24835329306845   -0.89517084517463   -3.76260642578758
H        -1.05215579959492   -0.16744551972631   -5.15996658140095
H         0.48879789492940   -1.01749830677626   -5.35972613289072
C         0.05218076346893   -2.70593351405344   -7.61891572380670
H         0.49379405307663   -1.70294236955757   -7.64962243615890
C        -0.09779877172504   -3.18503582279334   -9.06061224995463
H         0.82669115361873   -3.02955271620996   -9.61689768050418
H        -0.89901265320223   -2.63675702287370   -9.55350077943460
H        -0.32952186280308   -4.24648503040160   -9.09535834125421
C         1.02284979715163   -3.60269884433902   -6.85433805753411
H         1.94415168606368   -3.68836416249547   -7.43145873904720
H         0.62949526066000   -4.60299681244340   -6.70859114827107
H         1.28199700531379   -3.18532110541399   -5.88513699036374
C        -2.37406405261879    2.39927551963824   -8.44234810235807
H        -3.45328025237725    2.43137651342804   -8.64014849856855
C        -2.20737380310011    2.52734259625094   -6.92811052738867
H        -2.76882245445733    3.38309011114241   -6.55525556697009
H        -1.16561886700779    2.65953158972350   -6.64912825740590
H        -2.59066534142737    1.62263468707204   -6.44037647279343
C        -1.73194558707880    3.57148769588985   -9.17335763678798
H        -2.22722620515055    4.49579288919104   -8.87469051113830
H        -1.83435179298369    3.47226681816361  -10.25170962233273
H        -0.67896357070341    3.66856715762933   -8.92201424460171
C        -2.59066280350589    0.60120943444177  -10.72938368923809
H        -2.07735110122992    1.36121398710662  -11.32712685362804
C        -4.09227577916036    0.85590807087016  -10.79272755208253
H        -4.44778458942189    0.71884303197305  -11.81370354527123
H        -4.34794739151179    1.86706954362523  -10.48501607492563
H        -4.61705350066918    0.14851025160971  -10.15095323502229
C        -2.30487744946839   -0.78872139358060  -11.29246849517294
H        -2.71794958769313   -0.89020547737450  -12.29543888975694
H        -2.77516657462323   -1.53528217173741  -10.65010378768010
H        -1.23804559949643   -0.99351846659985  -11.34284056746340
C        -0.08264084746028    0.61023251269425   -9.29765326061236
H         0.10193994085318   -0.45991658735565   -9.44807466191605
C         0.48364503784166    1.34059657849874  -10.51287312628714
H         1.56523081238262    1.20207720652815  -10.52802384909808
H         0.28724732482309    2.40675543179095  -10.47903391034827
H         0.08996041428536    0.94333331081725  -11.44442601015842
C         0.65568145966442    1.02869498752981   -8.02862983017772
H         1.68268594033370    0.66345891376045   -8.04166077096149
H         0.15102103351099    0.62277267746647   -7.15323393023215
H         0.69143526536166    2.11143472197854   -7.93906956349366
B        -5.10089523759516   -0.49282379958922   -6.95534097616915

