68
CSD_code = FAPZAX | q = 0 | S = 0 | Stoichiometry = C35H31PTi | MND = 12
Ti        2.84473628603108    8.12155634039681   10.51516170206685
P        -0.14975639424567    9.71902329521173   10.52867861638405
C         4.02782631691526    9.79941413963279   10.91396517058790
C         5.22408666070301    9.65329922453538   11.62630324195155
C         6.08363178957040   10.71372731869427   11.86914590078199
C         5.78293012843911   11.97843843520640   11.39558319044349
C         4.62081029420113   12.15755072796859   10.66870323940944
C         3.76863182007694   11.08788056840447   10.43337585691530
C         1.32375395005249    9.22100576924694    9.84841647441977
C         1.51203547752413    7.92851963343220   12.44456131532659
C         1.43172868555348    6.67591410558373   11.79677262988293
C         2.69168709547033    6.06763314234336   11.88419540166855
C         3.56272530726800    6.94622799643531   12.54384862684716
C         2.83588111546269    8.09620225901454   12.90526311156721
C         2.70774258076603    7.40141020709798    8.22182418768895
C         3.13194084837789    6.31062309440404    9.00087729005204
C         4.40937516495663    6.61145525461618    9.51260091200190
C         4.76920656885185    7.89015215539276    9.06201991015608
C         3.71577925814913    8.38499837241282    8.26503395036851
C        -1.12117011667184   10.69891462373075    9.34095779210449
C        -0.60297586925349   11.95507866549199    9.03558457261447
C        -1.22734395259643   12.75856136168681    8.10149156602410
C        -2.37512968607710   12.31156048531102    7.46438647289107
C        -2.89147766663191   11.06220222830932    7.76382338586160
C        -2.26859145932546   10.25297020626816    8.69906888172351
C        -0.18228841812953   10.87925191642449   11.96413137288178
C         1.01793206318175   11.23647038065122   12.56455546611119
C         1.03195253097060   12.18742996036510   13.56935929709464
C        -0.14936143501005   12.79398174495167   13.96594445699174
C        -1.34499920284587   12.45672132913898   13.35084755898066
C        -1.36411462019274   11.50739508594200   12.34556059304471
C        -1.30880062746497    8.37163006699279   10.99893696044687
C        -2.02160860557414    8.27717113515756   12.18620923904960
C        -2.84950911278839    7.18922796000190   12.40624906238734
C        -2.97367686425380    6.19741386868553   11.44758537313467
C        -2.25546778345338    6.28190243532691   10.26442198389043
C        -1.41845327618107    7.36000041948094   10.04829465662745
H         5.52128834696894    8.67876026414752   12.00567716527763
H         6.99510232525196   10.54936441267274   12.42916204610245
H         6.44912761019351   12.80844270153491   11.58421569777800
H         4.37338405822821   13.13616483746346   10.27871831554198
H         2.87070850134135   11.27672744266651    9.85189753074311
H         1.36733115886132    9.68569144697699    8.85386910732143
H         0.67312257564475    8.55184095554607   12.72570347216786
H         0.52651820610059    6.20719993204024   11.43290857071897
H         2.92672891303395    5.05461472394475   11.58682286266526
H         4.57418955379542    6.71177318612068   12.85090602347823
H         3.18340750705268    8.89288545804896   13.55211536601141
H         1.82163808678695    7.42768403707328    7.59905508121424
H         2.62515600827510    5.35568328369268    9.06409115076468
H         5.05316074627694    5.93143142302951   10.05596135640203
H         5.73555412012913    8.36099184989789    9.18656306853384
H         3.73444139654732    9.30848719080417    7.69817533036982
H         0.29276477072639   12.29071848576299    9.54365684732413
H        -0.82382511256956   13.73342430763495    7.87028526394940
H        -2.86574788465150   12.93780708825001    6.73404731561544
H        -3.78615970888258   10.71423014425941    7.26770822779972
H        -2.67992155943589    9.28091722189223    8.93247050538278
H         1.93233032393918   10.75979144888635   12.22497429879705
H         1.96645356531238   12.46101964413508   14.03692980328296
H        -0.13901078957500   13.53857989836507   14.74834881194238
H        -2.26322021616297   12.94060804058480   13.65156710583054
H        -2.29223761511738   11.25132942674184   11.85092355216873
H        -1.92717858105651    9.04422037412718   12.94239172679302
H        -3.39934391773303    7.11434611150028   13.33322305301777
H        -3.62279966173028    5.35281321067550   11.62589558238469
H        -2.34342394751100    5.50369081947205    9.51975447476712
H        -0.81980763185041    7.43594471813763    9.14584186545148

