56
CSD_code = FAQBOR | q = 0 | S = 0 | Stoichiometry = C14H36FeOP2Si2 | MND = 6
C         4.02636384165850    7.07506071942141    9.79958190056273
C         3.18377325985356    8.13595685977713    9.43429683036425
C         4.47060982453446    9.93911095476260   11.59691837181421
C         4.31548238873835   10.97222926824605    8.65552581224951
C        -0.06557562862957    6.55395550062230    8.33589104901089
C         0.24194412538492    4.25290776172139    9.90925660751326
C         2.14284574281249    4.89796626965691    7.97488358220321
Fe        2.27889295480525    6.90420430080517   10.81563056144056
Si        3.46365177783473    9.90161200182210    9.97461389557654
O         2.00398234519723   10.61591987435728   10.21085201842293
P         1.22078993799838    5.71474932580865    9.35118374880404
H        -0.81608977437970    6.98163471956435    8.99343079118364
H         0.40430631048279    7.36042816574523    7.77920258990706
H        -0.53491778407988    5.85746013040833    7.64190065434319
H         2.90226367922576    4.23860134288373    8.38902273002437
H         2.63279090077648    5.66107984678087    7.37518124296620
H         1.46644360333923    4.32166378394865    7.34479974920618
H         0.92911078499869    3.48390543486953   10.25561409338104
H        -0.39708621988827    4.54848234324813   10.73697212716935
H        -0.36754593555881    3.85365241725174    9.09970450418451
H         2.67508940665730    8.02615120718569    8.47852807629042
H         4.42789862374720   11.99622513681451    8.99478899769086
H         5.30182048486684   10.58537492355519    8.42494166266871
H         3.74112022121108   10.99054446231528    7.73616394949306
H         4.28627120028146   10.85333493495395   12.15247289802403
H         4.20831857980165    9.10261713503185   12.24059418738434
H         5.53648293325985    9.88088782590122   11.40080948370746
H         4.87410342985244    7.29122360420226   10.44316665999981
H         4.23949482060929    6.29102074320641    9.08456209905207
C         0.50790068000161    7.15755362670735   11.83386553541020
C         1.16872664576605    8.36610231055109   11.60099816516020
C        -0.66633967201422    9.88828496908474    9.42207052698599
C         0.00767644220629   11.17570177092958   12.16038287367822
Si        0.62251621470793    9.97120993863285   10.81569815447774
H         1.94690219649568    8.58424346744105   12.35519849925833
H        -0.13277582148145   12.17231842963884   11.75417325721641
H        -0.94188387603028   10.84761984781536   12.57029872400561
H         0.71400596331959   11.25299443819658   12.98086058899752
H        -1.04790093229057   10.88214140471283    9.21034835054370
H        -0.24072006537960    9.49781951225860    8.50591196424534
H        -1.51066977681793    9.26759710521569    9.69996624888646
H        -0.43854823917971    6.98711429582980   11.33645170683423
H         0.54967787572043    6.69519723427727   12.81341603913264
C         4.18097114782352    6.04774662137326   13.26000241423257
C         4.26359695341531    3.98596670016693   11.34930693748354
C         2.12809747337633    4.17192578502422   13.13548542450314
P         3.09344727178127    5.25839040516915   11.99149409451551
H         4.97776334674939    6.59311720750706   12.75835232569103
H         3.58460880396598    6.75500132409704   13.83573465596238
H         4.61544711495928    5.31090554879976   13.93452602735784
H         1.48074568614401    3.51273369531941   12.56305841629616
H         1.50363553832461    4.79395846272563   13.77226338259087
H         2.79315512453950    3.57437766173235   13.75795682258816
H         3.72183419383807    3.28678299410559   10.71504137177271
H         5.02496949008389    4.47897095857645   10.75021235340792
H         4.73662438457995    3.43966328924036   12.16453426412265

