66
CSD_code = FAQBAD | q = 0 | S = 0 | Stoichiometry = C20H39FeN2OPSi2 | MND = 6
N        14.98634816592212    3.30961375587878    7.32184837106923
N        14.69801591038917    4.71471342002358    5.49870894367565
C        12.61322484477807    6.25390445663609    6.30593957017789
C        13.22650688662333    7.29473582781560    5.61597254120266
C        16.16528526924067    7.01378472274026    5.63797760569898
C        16.60669307096062    6.20411324283951    6.69804698026268
C        14.11756860955558    8.17482567708906    8.20805865578957
C        12.23564243905719   10.22120775142372    6.65399736019126
C        17.46968087108741    9.48887067601518    7.04911245558418
C        16.94915756080784    9.50459519570518    3.96320720725625
C        15.65628381325932    4.60678940541812    9.71701086362122
C        17.07084822726562    4.13824044002569    9.39085854445615
C        15.72906690412643    6.00276016909903   10.33351821782499
C        12.97177407123391    3.95802375553497    9.06487383227904
C        11.95544708685639    3.49404303482481    8.02628977167862
C        12.32688669658873    4.95610394441142   10.01944969886126
C        15.09660019076213    1.97415904284427    7.87271481782794
C        14.93848926701580    3.46799865225789    5.95717511400334
C        15.12209462358509    2.39404931963991    5.08484538731653
C        15.03659548513338    2.59037808985396    3.71846336350125
C        14.75136421355152    3.86492438884987    3.25527854516973
C        14.59949891833267    4.87698883381765    4.17895522691318
Fe       14.61112957312338    6.18644725800019    6.64099242286901
P        14.50110770811933    4.69267582959004    8.22139701383442
H        15.33220466907545    1.40927079857185    5.46530388274135
H        15.18153103678821    1.76469988858177    3.03941941892436
H        14.65560756061283    4.07242665184067    2.20219048613994
H        14.38087809814395    5.87876608391157    3.86016313335100
H        14.27341142180498    1.32994531388382    7.54714782163020
H        16.03999896092359    1.50933840153600    7.57389096010286
H        15.07449716690551    2.03634761287939    8.95717953978644
H        11.23091835551063    2.82065745078306    8.48340744793971
H        12.43743860231115    2.97073872814805    7.20313375765009
H        11.41876988593284    4.34132457963636    7.61479149934358
H        11.39195167459278    4.55245391956094   10.40716108082549
H        12.97371258610921    5.17391936377988   10.86559530890101
H        12.10427875467217    5.88556881739174    9.50052024444678
H        13.29608029110042    3.08519204041208    9.64607548521117
H        17.68577197645619    4.19538454636447   10.28909749089618
H        17.51627812658200    4.77409071789875    8.63437023907208
H        17.09558885623252    3.11446107647739    9.03350980214354
H        16.24295531196475    5.96906872823229   11.29370268767606
H        16.28076851665429    6.66877690897369    9.67599008481290
H        14.74006612080506    6.42548669459953   10.48743160481016
H        15.21833218845392    3.92521815880338   10.45837842481095
Si       16.33528004300538    8.87192842904664    5.64606260008023
O        14.87550367428505    9.59601041919609    5.86644042162306
Si       13.56842907948201    8.87551565505975    6.52869852505536
H        12.20005766668090    5.42879246219962    5.74224372350759
H        12.07094738472560    6.47602939683516    7.21307557035940
H        13.27312667145584    7.26200034546012    4.53993555458921
H        13.29934475349349    7.78425233268551    8.80056074041638
H        14.66031587479630    8.88983081467048    8.81748795120282
H        14.80724113859683    7.34612829868238    7.98202604118742
H        11.31573993851397    9.81349977724850    7.05626587836541
H        12.55384054350975   11.03604033880117    7.29463766933736
H        12.01915871084927   10.63361269713395    5.67591209376075
H        17.53996325422958   10.57198971382636    7.04320156677013
H        18.47305957412444    9.09097715489923    6.94127239626374
H        17.09740215731248    9.19251074084418    8.02443892885777
H        16.96098031240356   10.58835453829057    3.93159826313414
H        17.95526414165180    9.15360276477944    3.76392778218435
H        16.30995261519645    9.15896209088116    3.15840834732040
H        16.24700044326097    6.55993506040878    4.65735331626137
H        17.04246039479079    6.68542084152743    7.56397598524737
H        17.06638105887148    5.25082275506017    6.46392373216461

