62
CSD_code = FAQFOT | q = 0 | S = 0 | Stoichiometry = C27H27MnN4O3 | MND = 6
Mn        3.28820248895314   21.12454922308648    6.08215776215787
N        -0.26459604107212   21.04659217693310    6.20206984609397
C        -0.19352587097930   20.15234854295380    5.08869797318585
H        -0.99593581406810   20.39505569931731    4.37686151990333
H        -0.36619338682451   19.13912360081641    5.46059607707835
C         1.13703668849011   20.16239018929377    4.29208476430841
H         1.01630644882242   19.48854177493112    3.43184434533581
H         1.33059241863704   21.17335992121432    3.92437244496598
N         2.23773830094757   19.74557590752967    5.12914718720542
C         2.51902893923887   18.48318116220792    5.10247920738356
H         1.95014122950891   17.83198831024933    4.43055172130774
C         3.51193435710179   17.82452646120743    5.89049172689713
C         3.59545688683061   16.42483210139063    5.86541381858500
H         2.90395112678664   15.87634343034793    5.23948253951581
C         4.51952364581937   15.74716340052940    6.62413734935062
H         4.56198231579486   14.66884542571082    6.59846614340868
C         5.40517987324275   16.46337160539111    7.43008666116586
H         6.13071112876090   15.93229372873713    8.02940135103760
C         5.36920412635595   17.83503900309670    7.46061379921138
H         6.06008693648449   18.40001345422914    8.06869290196196
C         4.43742082389795   18.56744206193018    6.68760983426873
O         4.48360329927471   19.85475233288801    6.69326856102537
C        -0.31091668070029   22.46016812024803    5.97964593302251
H        -1.17096835109217   22.88717829635353    6.52018749716461
H        -0.46772339811642   22.63082816763240    4.91241784571830
C         0.93205253339634   23.25835361443342    6.43417789701348
H         0.70235457603260   24.32660318663503    6.29878607902260
H         1.09821509985814   23.08030483027101    7.50013323081987
N         2.12788941443435   22.89921916257986    5.70774669352685
C         2.63237088154248   23.82915971065749    4.95989360876210
H         2.14006433772930   24.80957255416117    4.95843668918907
C         3.76911292575048   23.74205342867241    4.11210662593791
C         4.21300572807416   24.88781825379176    3.42941615979385
H         3.68964442110066   25.82052034237139    3.59330368781173
C         5.29208389372863   24.84485362844892    2.58569137604065
H         5.62927671691172   25.73723204768501    2.08066562556176
C         5.95959038402556   23.63170689629110    2.38048143665901
H         6.81354473565320   23.60094975326669    1.71873235411137
C         5.54412340367557   22.48797759208263    3.00713738970563
H         6.05715244167729   21.54913815013958    2.85979299990868
C         4.44938620966831   22.49916898943287    3.90804949055628
O         4.03422221073258   21.41753942489460    4.44989777005576
C        -0.15232975801119   20.55026819908968    7.54073777534650
H        -0.88314232024236   19.74159201836249    7.69057764111971
H        -0.41440579259518   21.36643234808733    8.21859438995811
C         1.22772900671032   19.98045317049482    7.95658180952573
H         1.14334191065416   19.65993918920348    9.00473151560145
H         1.44519120366510   19.09937229830868    7.35149279964938
N         2.31256852718713   20.93347827625276    7.80381690604756
C         2.64704495397102   21.57282284683513    8.89681182541372
H         2.09264248982490   21.32762496348789    9.80981825788454
C         3.64574673976492   22.55463729871526    9.06397938290125
C         3.78516328493285   23.16258695005203   10.33299563093892
H         3.11172072333198   22.85488556502645   11.12272643840286
C         4.72761803457010   24.11930707965350   10.57584864287996
H         4.81278764356044   24.57361670131183   11.55145274037304
C         5.59576038199613   24.51336510891069    9.54300104325493
H         6.34006431046433   25.27250039705521    9.73876040714019
C         5.50962562899613   23.94610867044713    8.30705342636294
H         6.17335649379864   24.23772234499345    7.50638889518897
C         4.54247868819275   22.93963997785738    8.00320923549257
O         4.51370644314299   22.43957093181459    6.83999331077907

