39
CSD_code = FAQLUG | q = 0 | S = 0 | Stoichiometry = C18H12Cl2N4O2Ru | MND = 6
Ru        5.37165656280979   13.88526263014308    2.90298763406831
Cl        4.67736295204723   13.05221478851225    4.95225745801561
Cl        6.48834318706117   14.34316331459856    0.92314023346542
O         1.93539202250295   12.59842375738078    1.26601501767611
O         5.99696570906954   17.67266752556895    4.09124763925610
N         5.29916701175278   11.93821375978155    2.23612737040661
N         3.60747669888432   13.92344390057033    2.17457299331079
N         5.03049360192840   15.72409771069307    3.28741165313677
N         7.14996894210331   14.31055427854039    3.84985821574108
C         6.21530234706226   10.97736406461924    2.20043294875025
H         7.19490734466255   11.23177581866419    2.58373190709626
C         5.96710832225858    9.71320417746992    1.69420820909945
H         6.75144945233453    8.97317107289126    1.69262081471062
C         4.70505978373107    9.42171710331099    1.19673226062104
H         4.47629146410679    8.44393679463969    0.80204008738928
C         3.75276745525120   10.42321248399669    1.21020881287737
H         2.75403637872835   10.28144239009738    0.82675660435365
C         4.08194949192972   11.67008832363797    1.73012784337344
C         3.06183233658146   12.77112092659766    1.69221116436050
C         2.99298540238846   15.13909315433199    2.27081089945499
C         1.70125650318627   15.45428958659977    1.82930727931315
H         1.09821167971634   14.68640752908132    1.37244086866330
C         1.22788732156443   16.73667519275768    1.98715556686808
H         0.23300598934363   16.98059915316445    1.64659499512092
C         2.01460451536575   17.72793150761022    2.57963538813555
H         1.61829552774743   18.72605773256070    2.68901823805087
C         3.28630047763248   17.45225306477731    3.02716231398602
H         3.89672359997459   18.21356410141730    3.48526069871879
C         3.79929658396201   16.15630574830843    2.88488490951401
C         6.01612600667224   16.48070861257415    3.84785877039438
C         7.20070391744745   15.61611738364191    4.16991863770836
C         8.29443306567318   16.17911340442320    4.81818404968824
H         8.26524056078540   17.23525303412575    5.03793599928293
C         9.36627241335601   15.37654722180845    5.16029439292092
H        10.22929266804313   15.78716990488292    5.66107658001228
C         9.29595439399261   14.02556159077775    4.85184252915489
H        10.09778289721169   13.35240113070890    5.11023866331350
C         8.17466188345401   13.54172673215152    4.20031026781529
H         8.09183352767699   12.49004939258242    3.95868008417472

