103
CSD_code = FAQMIW | q = 0 | S = 0 | Stoichiometry = C48H40N10NiO2S2 | MND = 6
Ni       -1.10071216772764    3.42654256922820    6.72989328072959
S        -0.69859567022146    5.27574469349430    8.57998010800062
O        -1.16995397543726    2.16460032987364    5.03034884809078
N         0.73772703829520    3.50982309221360    6.71393030644895
N         1.30688530778968    3.71969342483828    7.95447937406528
H         2.15608591964623    3.19672595743216    8.16003944295549
N         0.88262639350959    2.43245021509191    2.25883333245358
N        -0.30103741482099    2.12942111042556    2.86834847444583
N         1.29443164902529    4.36494399220550   10.14287915466637
H         2.19681709882610    3.90255610217790   10.15602529051850
C         1.56150510206873    3.23350394692044    5.72625201043041
C         1.09879404809630    2.82080048117127    4.46525315558105
C        -0.83009186047039    5.29140906280500   13.03943316132079
H        -1.84619822729974    5.58349194507764   13.25603923355956
C         0.08455430540766    5.14579749444814   14.06715074067727
H        -0.20916995350557    5.32957971611909   15.08925645648387
C         1.38132933601006    4.75898757370156   13.77409913813733
H         2.10575698363226    4.63764662087267   14.56550177682153
C        -0.46484813781527    5.06274407439362   11.72578602807329
H        -1.18972426355051    5.18121899791635   10.93984952242462
C         1.71959238034107    2.82370075718900    3.17836428740372
C         3.58053389295716    4.59604542696975    6.26344307038359
H         2.94026366090001    5.46245086306396    6.34845993184973
C         3.09416253463200    3.25293925005686    2.80879441958150
H         3.15935066357000    3.31940301253328    1.72638237773207
H         3.83396786886260    2.53663453109432    3.16361969393920
H         3.32281471474580    4.22185082681827    3.24906573423170
C         3.02414446798659    3.36113920750082    5.94032927931105
C         1.75376085184634    4.51861534836721   12.46725616166187
H         2.76394495009437    4.20236505484618   12.24468852502949
C        -0.23307755815373    2.36040376848569    4.22013306468943
C         0.67238619375079    4.39996856141522    8.93978336536766
C         0.83477261314059    4.66941197888216   11.42946471146039
C        -3.67861190259277    1.03085523259043    1.89641244792837
H        -4.59582841715793    0.69248308275188    2.35927012933894
C        -1.40537880173634    1.77079839652024    2.10078506707272
C         5.76176790808034    3.59837937129824    6.32935786469937
H         6.82731717935868    3.69127805649816    6.47654431193690
C         4.94619140813640    4.71228626763559    6.44818532162597
H         5.37452185876583    5.67454032774232    6.68591569806043
C        -2.41566759765253    1.55509651017211   -0.06730840064567
H        -2.34494305561323    1.63692569509924   -1.14163733294912
C        -3.60116926278327    1.14164593196616    0.51891142704836
H        -4.45670132033110    0.90064080217416   -0.09437960494510
C         3.84619765956750    2.24544794579755    5.82068820806554
H         3.40848562269277    1.28839270479117    5.57679271773859
C         5.21024584133538    2.36610981146609    6.01940830324576
H         5.84443375912619    1.49687299948544    5.92735482211229
C        -1.32240190295865    1.86932423525959    0.71301306141939
H        -0.39399101425154    2.19704772559241    0.27552339351566
C        -2.58906300614333    1.33618323342625    2.69138222013670
H        -2.64294330223090    1.23488034017568    3.76327853173913
S        -1.50262386922521    5.27612916476704    4.88024607881668
O        -1.03166821292279    2.16461212275742    8.42948039125078
N        -2.93913252394038    3.50987017272033    6.74564405236196
N        -3.50801505655639    3.71970097394718    5.50495642993049
H        -4.35700920675248    3.19651420307279    5.29909909302045
N        -3.08476988953859    2.43235071655337   11.20063147301597
N        -1.90096629720440    2.12941608095066   10.59133686164799
N        -3.49476234657921    4.36478118381769    3.31649453977911
H        -4.39695782758987    3.90203320276781    3.30293229232123
C        -3.76308934290825    3.23335883698391    7.73311170246541
C        -3.30056282827465    2.82067448214801    8.99417997597257
C        -1.36920832892906    5.29221986226159    0.42101451512744
H        -0.35311649883668    5.58469815698339    0.20492147699353
C        -2.28335150939494    5.14650942493102   -0.60714031067692
H        -1.98920887094986    5.33055051548245   -1.62907833379226
C        -3.58017077902557    4.75934693652286   -0.31471676009250
H        -4.30418453485458    4.63792433824229   -1.10646280105784
C        -1.73498410773099    5.06326372045650    1.73445564930349
H        -1.01051440751517    5.18189911818481    2.52074171721055
C        -3.92160156990257    2.82352567475286   10.28094651875454
C        -5.78221596909421    4.59546658737340    7.19517797117026
H        -5.14208158923432    5.46197896530671    7.11022098147148
C        -5.29625583401455    3.25272607926234   10.65025141887384
H        -5.36163904269537    3.31925459319871   11.73264748176331
H        -6.03597835928351    2.53638138084485   10.29533592843439
H        -5.52485604631161    4.22160655702742   10.20988319992948
C        -5.22569531587587    3.36072017858367    7.51868127276588
C        -3.95313478632943    4.51865198870997    0.99192227704914
H        -4.96331116789090    4.20206396252782    1.21396656778397
C        -1.96869249965876    2.36037444530089    9.23953680114450
C        -2.87326931177376    4.40004424654903    4.51985576138439
C        -3.03463915950469    4.66951012228201    2.03013644841460
C         1.47667944666461    1.03175302444859   11.56405636273055
H         2.39408086944364    0.69358415481671   11.10142563713697
C        -0.79671350278431    1.77103713718924   11.35914693591567
C        -7.96326298965623    3.59741651572597    7.12891824518920
H        -9.02878619174325    3.69009777962048    6.98141044545343
C        -7.14784344898499    4.71143576877961    7.01005696839920
H        -7.57628530007694    5.67357949270748    6.77207612003083
C         0.21308791827021    1.55552482497504   13.52748828309895
H         0.14210483877460    1.63738723329137   14.60179681298271
C         1.39886403482971    1.14247092815292   12.94154200789922
H         2.25432198447648    0.90172592160508   13.55503725353514
C        -6.04758897201083    2.24491369490073    7.63833929643674
H        -5.60976710604654    1.28796900797457    7.88247413329730
C        -7.41161081606117    2.36530770562290    7.43926865707851
H        -8.04566224469227    1.49596230669550    7.53124678031423
C        -0.88006277078746    1.86948547005732   12.74690352761389
H        -1.80866306346361    2.19696664357357   13.18416874578007
C         0.38723183650765    1.33676285557407   10.76882666535107
H         0.44138216791090    1.23546288094174    9.69694480354935

