115
CSD_code = FAQQOE | q = 1 | S = 0 | Stoichiometry = C57H48N3O3P3Tc(1+) | MND = 6
Tc        4.81371335051713    4.72373418694437    3.75745531594986
C         4.28457546870589    2.93423492343668    3.33916783685239
O         3.99635930400995    1.84178758849916    3.10372020355921
C         4.22129527423011    4.37970216609671    5.54769939555560
O         3.82387269484660    4.14064133989844    6.60396187342545
C         6.56028540410624    4.05853375330668    4.18011943898326
O         7.61217220453003    3.65598700193186    4.42801553015108
N         5.38506656414622    6.87242126279290    4.05835352411570
H         4.94044699632657    7.49548193804823    3.38570727998658
P         6.63345602336672    7.61589181498163    4.71093320796938
C         7.38116153046715    6.51930638394922    5.92957045031770
C         6.54320466385902    6.04777177681545    6.93530094231500
H         5.51042325928593    6.36514247534237    6.96011827216144
C         7.03900414532290    5.18756008115024    7.89562671920294
H         6.38749030406279    4.81241107370952    8.66961339473543
C         8.37246818679607    4.80979097380943    7.86050250138570
H         8.75977538119220    4.13408903379791    8.60756190068815
C         9.21217680854121    5.30170837747822    6.87510436923344
H        10.25213435048085    5.01330896580957    6.85717859386744
C         8.72218421881201    6.16118393925016    5.90744852348887
H         9.37715321009244    6.54397042672827    5.13753426020849
C         6.18835201749409    9.12866972222924    5.62303551939694
C         4.95834360069280    9.74151286767436    5.42588473483736
H         4.25502232649661    9.32441827122517    4.71816811072337
C         4.62915550465421   10.87891430861821    6.14242936334810
H         3.67088397750358   11.35273871271474    5.99028287932389
C         5.52840156512474   11.40471439785811    7.05515723736089
H         5.27100130790260   12.29105145292838    7.61449648866602
C         6.75794970632299   10.79431381697611    7.25474996328071
H         7.45550238206038   11.20510499992952    7.96867760399754
C         7.08969441757561    9.65750964162894    6.54221280989344
H         8.04373449800084    9.17008587347123    6.69120566779856
C         7.91934568712282    8.10846534247576    3.51610017765877
C         8.42067295465142    7.10134167037831    2.69519878149457
H         8.05677654128050    6.08780437741798    2.82074398068192
C         9.37287746068097    7.40745462939687    1.74048261527084
H         9.78281871922504    6.63031739193722    1.11271037858551
C         9.80976125836231    8.71511466004235    1.58959352156035
H        10.55237719494260    8.95088267223641    0.84247977408820
C         9.29608335571790    9.71891484741447    2.39388386600248
H         9.63411633752979   10.73679566336237    2.27184753107156
C         8.35073607440650    9.41917305661448    3.36001423809041
H         7.95279928031024   10.19931200859909    3.99383157410748
N         5.35011633302641    5.24626429815642    1.67283911259273
H         4.86711477808343    6.04774126391967    1.27213838243958
P         5.76315335924039    4.22628750125825    0.52078599872267
C         1.41715958921933    6.70596960304568    5.54557883245626
C         2.59427850617221    7.20238684519818    6.08799340595935
H         3.53687419670644    6.95117145440588    5.61912869006353
C         2.55221480121854    8.00256071186158    7.21627732793914
H         3.46849458554289    8.38849388701427    7.63933386051645
C         1.33356546823548    8.30859330235810    7.79931665821250
H         1.29934299677633    8.93245326188614    8.67950625455951
C         0.15564608922494    7.81589374398628    7.25693126644863
H        -0.79198578238994    8.05673453497945    7.71451013374854
C         0.19285590522638    7.01500306777362    6.13097780494666
H        -0.72013935511227    6.62609708192467    5.70019185242783
C         1.15388585907377    3.95381207725854    4.59821232078999
C         1.23715260498712    2.95532377996848    3.63253266122298
H         1.52355182367512    3.21540805967697    2.62335031801721
C         0.96888668100991    1.64344391496823    3.97287842871041
H         1.03985812825221    0.86821249659943    3.22528193466444
C         0.61785667237154    1.32774911213582    5.27616293237879
H         0.41277521985714    0.30264347877080    5.54433937626724
C         0.53161345217493    2.32246653637265    6.23662504826543
H         0.26104455172321    2.07198934780158    7.25097895459804
C         0.79434037603642    3.63912305588109    5.90217692341017
H         0.73272637313545    4.41445295741298    6.65193970065259
C         0.09991894970298    6.22051101464128    3.04624088575545
C        -0.84079774939389    5.35722974332686    2.50118815947282
H        -0.79680151109114    4.30112593746729    2.72653369083448
C        -1.84014592449300    5.86022097805623    1.68546496939827
H        -2.57673366647945    5.19143757685773    1.26645295062806
C        -1.90043082067759    7.21675506571954    1.41077068483141
H        -2.68295727364231    7.60398839090211    0.77650849185328
C        -0.96131258329695    8.08010153023932    1.95372434264053
H        -1.01175632109840    9.13794959892848    1.74371981856678
C         0.03746500522673    7.58334460170019    2.76976756189857
H         0.76834470208565    8.25043009204872    3.21157101663616
N         2.84729086449197    5.65832297441639    3.22124237486882
H         2.85749062889727    6.45951804397884    2.59327477398985
P         1.49247634838215    5.64268149246601    4.06409878625420
C         4.46767450161758    3.06242557653529   -0.01888919854910
C         3.14685754438287    3.39801228374262    0.25180641412695
H         2.93197339348584    4.31654445716263    0.78349077117042
C         2.12268220811185    2.55634231296105   -0.14189447262374
H         1.09485478065391    2.81866988803958    0.06395333997319
C         2.41755925703131    1.37594668192764   -0.80425372797651
H         1.62003153152910    0.71537948917613   -1.10856153268128
C         3.73442770014129    1.03783162191270   -1.07496407234741
H         3.96016995120560    0.11520863889056   -1.58799672084439
C         4.76179956382948    1.87808977983626   -0.68666895952697
H         5.79127903970075    1.61570823917883   -0.88950282803772
C         6.30819505792176    5.12467356619248   -0.96176463090011
C         6.18244111308095    4.59667849257661   -2.24058199740589
H         5.72147340491778    3.63042019599062   -2.38362202675316
C         6.64205456354197    5.31830923310392   -3.32810679021440
H         6.54348604136595    4.90966001204550   -4.32223048396362
C         7.22829688735493    6.56065090160047   -3.14476075871090
H         7.58781609910286    7.11741850201964   -3.99648124521837
C         7.35046603306773    7.09091392717007   -1.87020228176190
H         7.80488093949868    8.05985183665276   -1.72500708098042
C         6.88875699165134    6.37663899830662   -0.78013760370428
H         6.97879248785952    6.78460606269454    0.21867684447862
C         7.16014237457104    3.23651621837850    1.10866272919700
C         8.42978750487010    3.79807865366063    1.03036473430329
H         8.55493430821775    4.75689849849779    0.54673595402188
C         9.51772185966325    3.12545841586394    1.55367076907718
H        10.50322302237795    3.56330192171366    1.49587641547670
C         9.34159568266062    1.88738736844289    2.15047845177075
H        10.18999869553922    1.36376462098057    2.56343793392676
C         8.08047231262226    1.31821239923871    2.21169544640923
H         7.94506382688315    0.35082967639988    2.67016922236527
C         6.98641502405148    1.98728007871969    1.69221056564076
H         6.00591692295489    1.53912916623024    1.73786978177466

