53
CSD_code = FAQREX | q = 0 | S = 0 | Stoichiometry = C28H20N4Pt | MND = 4
Pt       10.28773896660959   13.76679714260891   11.72009379482827
C        13.54826697663649   12.54143108071259   14.02891492246353
H        14.25744812843571   11.72964066504394   13.99805069457471
C        12.54471112040060   12.64567853794450   13.07324944843730
N        11.66072692636037   13.64699908032643   13.10279892432971
C        11.69748857089796   14.60389808124144   14.04253282057661
C        12.68219080780054   14.55123442355673   15.02922073406625
H        12.72985236121061   15.30873210527952   15.79441671913689
C        13.60380505984461   13.51517921827863   15.01699544928669
H        14.36977550842904   13.46552919234412   15.77639598563105
C        10.64711800209215   15.60146420772782   13.86351599524871
C         9.79635979643144   15.40890934630163   12.73964758519180
C         8.78564771233270   16.34540706874978   12.53769966868830
H         8.12221167329144   16.23012134317320   11.69262976250526
C         8.61600717032750   17.42007446808788   13.39699888355369
H         7.82276020018683   18.13173948860776   13.21653031174266
C         9.45428708904695   17.59103691642644   14.48807138855166
H         9.31608412068145   18.43008857666543   15.15483414948488
C        10.46871378125383   16.68403007321722   14.72197873549556
H        11.12056742185579   16.81889025824616   15.57384425092677
C        12.31479002534956   11.74477232833466   11.95892528095883
C        12.93145147856624   10.60770526622058   11.47573710324062
H        13.78548920527571   10.05615063510297   11.80610981151736
N        12.20331296884275   10.25640739765143   10.39459903600095
N        11.21269383126912   11.10847554240926   10.20340967266048
N        11.26243987380140   11.99856468361888   11.12226649068859
C        12.45193012545044    9.19773616823292    9.45163466717321
H        11.48380915932703    8.91620719960585    9.02789395844424
H        12.88595735679662    8.34381329391923    9.97658790172260
C        13.37366183876314    9.68739178337059    8.35760941802763
C        14.59107999847989    9.06900266501627    8.11655638081627
H        14.88736875477242    8.21108411441070    8.70374748829800
C        15.42455261513245    9.54314362713908    7.11738947210695
H        16.36902353420298    9.05424781782958    6.93092998805235
C        15.04959993715938   10.64240153903380    6.36461136536359
H        15.70247579551089   11.01314349305642    5.58889618184928
C        13.83664894761099   11.26627307429164    6.60784873303770
H        13.54058075316068   12.12413766131409    6.02374243266283
C        12.99858694472990   10.79019071128888    7.59945794657494
H        12.05144953180366   11.27324493335378    7.79365169220088
C         8.93138702448185   13.91456350147299   10.32250182666820
C         8.12047816008212   13.97675012596589    9.41660121804805
C         7.17574443311461   14.05070039587110    8.36686159237389
C         7.51961895234335   14.63205245137435    7.14383975005520
H         8.51685253243709   15.02719784675766    7.01189024579958
C         6.59460643882334   14.70233741797012    6.12105572599452
H         6.86930929376605   15.15539496862339    5.17819487665436
C         5.31634731137514   14.19608647051586    6.29675371846886
H         4.59492859036568   14.25303462354521    5.49406766017222
C         4.96715022133756   13.61761282335847    7.50701577218511
H         3.97009561166232   13.22292044109760    7.64706698864994
C         5.88503379111246   13.54344910823248    8.53593572527262
H         5.61698356896967   13.09442461547881    9.48158965354298

