77
CSD_code = FAQSIC | q = 0 | S = 0 | Stoichiometry = C24H36Cl2N4O10Zn | MND = 6
C         9.20993980340260    2.20266116994169   13.63558869211213
H         8.39095749609733    2.58561155994154   14.22461866261661
C        10.51552599764752    2.63951211439390   13.80403185420403
H        10.75008665068080    3.38315862965509   14.54878080576766
C        11.50760315029875    2.06897056462575   13.02549997573363
H        12.54466693424067    2.33555356781379   13.16686908937704
C        11.15342074595735    1.14632368712789   12.05215695825477
H        11.91267336679072    0.67071142445723   11.45238332255056
C         9.81172816200458    0.81694648925042   11.90559410561402
C         9.23332851563923   -0.18138807404613   10.94686600130886
C        10.53017286825313    0.67805236836899    9.04541045028034
H        10.72252823289640    1.46241445640708    9.77705047549785
C         9.80608605848781    1.35729110908784    7.88366308370189
H         8.87654241506675    1.77719069587446    8.25741509362046
H         9.60078049339837    0.67386346402560    7.06479803317234
H        10.42736985484412    2.16471017386082    7.50481011742673
C        11.85518707748293    0.05018271438492    8.60724155962523
H        12.31540960994649   -0.49658030211462    9.42704425272541
H        12.53829054010928    0.83041376549549    8.28250026515965
H        11.71275451322400   -0.63839284411578    7.77849209485597
C         7.61992226547881   -1.18073200395415    8.61364307941062
H         7.43595614168065   -0.20301745258936    8.17824865994774
H         7.06229831422223   -1.24004059500590    9.54229691473640
H         7.26146551549810   -1.94759176039781    7.93074564581862
C         9.41402858144142   -2.75154103000688    9.47319113490777
H        10.48625643745765   -2.88001942836173    9.60497693094732
H         9.05261400873710   -3.52972510614572    8.80573751363018
H         8.93018026180084   -2.86341918892506   10.43863119262119
C         9.11373675448268   -1.38141444274156    8.86433371627276
H         9.63569586743709   -1.31947443794185    7.90615261217520
N         8.88514962455164    1.29823271069700   12.73113323826616
N         9.68116240828505   -0.31318946596273    9.70130660134417
O         6.67990267081556    2.91886191412325   12.03249489733930
O         5.54094723863698    2.59988491094552   10.02428499114709
O         7.75100053882597    1.91366893391150   10.23100092745397
O         6.05681476693222    0.77839720737495   11.35374475615132
O         8.33307232130679   -0.90794558439361   11.39837478798124
Cl        6.50837508843406    2.08212759924517   10.90980369816152
Zn        7.33077901873998   -0.00001323855896   12.85425354043492
C         5.45161027015526   -2.20269305837856   12.07293836768457
H         6.27058831068371   -2.58564380697870   11.48390177609657
C         4.14602277295621   -2.63954168866480   11.90450411319669
H         3.91145561662122   -3.38318841739837   11.15975698407590
C         3.15395325711505   -2.06899413204036   12.68304205927178
H         2.11688745714073   -2.33557300925865   12.54167998401482
C         3.50814661328122   -1.14634846881502   13.65638185638986
H         2.74890007156265   -0.67073605446469   14.25616212858990
C         4.84984029799198   -0.81696885469061   13.80293184741325
C         5.42824303333666    0.18137391002690   14.76165174137363
C         4.13139782519696   -0.67803815368908   16.66312754344442
H         3.93903817639979   -1.46241874229594   15.93150765951528
C         4.85548608008632   -1.35724814810143   17.82489066442219
H         5.78503294854008   -1.77714804017223   17.45114777708639
H         5.06078769105865   -0.67379656243604   18.64373869652503
H         4.23421213900840   -2.16466254076025   18.20376964182383
C         2.80638827291455   -0.05014987191788   17.10128568634685
H         2.34617430299649    0.49660452850022   16.28147289336152
H         2.12327399960884   -0.83036728449000   17.42603870454005
H         2.94883046249383    0.63843750579042   17.93002431491159
C         7.04165141506695    1.18073104763022   17.09487586196517
H         7.22560864557315    0.20303297699931   17.53031079720545
H         7.59927967644393    1.23999776901061   16.16622127783400
H         7.40011117742825    1.94761617519748   17.77774328915907
C         5.24754703094359    2.75154340410552   16.23532587942790
H         4.17531553157480    2.88003956240672   16.10358256793252
H         5.60899810465919    3.52971743037893   16.90277255255823
H         5.73136223112535    2.86341923129334   15.26986901392025
C         5.54783811886440    1.38141651392142   16.84417939408408
H         5.02587645263841    1.31947676018669   17.80235725110861
N         5.77641071567556   -1.29825743365311   12.97738431049983
N         4.98040879350375    0.31318886746494   16.00720960790674
O         7.98162622868854   -2.91887689799007   13.67603636804467
O         9.12060622757069   -2.59990647281377   15.68423292943002
O         6.91055945160574   -1.91366591830802   15.47753729952290
O         8.60474899212511   -0.77841924107287   14.35477216146261
O         6.32850006114983    0.90792853021215   14.31014109173823
Cl        8.15317123495929   -2.08213769048122   14.79872417375780

