95
CSD_code = FAQYUU | q = 0 | S = 0 | Stoichiometry = C53H32N8OZn | MND = 5
Zn        8.86105906413619    9.12712727377147    3.84171515133168
O        10.22713827916758    8.80177709197227    2.06218618797816
H        11.05955741184979    8.44110585246884    2.38729246166665
N        10.49313814874566    9.38860223735877    5.10049764138565
N         8.67870680722070   11.12779146464167    3.67042153202812
N         7.13495340464460    8.86612251396498    2.81675894617481
N         8.92875979881490    7.12385111913768    4.23304467277555
N        13.08265232624162    8.42251752571626    7.36550251079148
N        12.88455844703886   11.25104159173740    6.99006174784123
N        17.21403281689393   12.59400376759944   10.61746752564452
N        17.48442721267158    8.67128230967505   11.14020930540234
C        11.17836772924900    8.39719835906216    5.73148605011816
C        12.21213067878526    8.97481324130590    6.55806302698503
C        12.11142681892025   10.39415943450446    6.37159057850633
C        11.02284404884285   10.59254726376320    5.44455570652391
C        10.60277322506610   11.84209139769702    5.01473800925297
C         9.50270239766794   12.07140246919797    4.18753111973507
C         9.07412370631713   13.38064601296579    3.77977394434631
H         9.55817472906271   14.29787831894333    4.05310017374472
C         7.97228874666516   13.20613638370716    3.01448643881363
H         7.36629351495981   13.95705265996492    2.54658990934761
C         7.73429240291840   11.78910645265792    2.94781259588253
C         6.66439496677854   11.20935921589513    2.27007078189414
C         6.39461223078466    9.83994545407146    2.22814267092741
C         5.29434876007474    9.25306247579982    1.51449829156130
H         4.56086777020703    9.79615512974047    0.95146688841803
C         5.38305045371695    7.91403761011586    1.69450781203023
H         4.72492026274536    7.15295945475115    1.32352966454530
C         6.54648678972776    7.68267637356065    2.50494161468613
C         6.98677123676929    6.41979611227702    2.90477637913918
C         8.10044108952853    6.17984651221707    3.70754736793038
C         8.56438656878248    4.86778629630553    4.06874500980955
H         8.10726483816856    3.94579567213790    3.76709546275953
C         9.66966309414500    5.04072825263290    4.83062422994592
H        10.29330550186600    4.29214271802040    5.27878366828332
C         9.88292642564217    6.45761245351457    4.93004205483537
C        10.93791625791312    7.03370533882678    5.64158630261861
C        13.89477734216013    9.28649571063130    8.00610688928725
C        13.79669835568420   10.70290349488304    7.81672283118543
C        14.67382172444689   11.55694509073353    8.51182813775695
H        14.58367332926045   12.62119280650267    8.35446687190659
C        15.61697571378389   11.03385175350725    9.36379200944593
C        15.71449141346258    9.62208350099534    9.55293447844731
C        14.86633991349141    8.77136004001532    8.88504059339911
H        14.92469617791513    7.70107631366813    9.01402413126558
C        16.50188984569769   11.89027451337001   10.06026387027198
C        16.69444353930908    9.10494874398955   10.43258657298709
C        11.37297790408158   13.01589445434483    5.49194817709204
C        10.88537121154801   13.80285790385777    6.52742579470101
H         9.93389261009238   13.55755067122277    6.97697347935100
C        11.61763338666687   14.88296043848993    6.98629014023421
H        11.23503586005118   15.48545174007007    7.79739242583792
C        12.83839734408418   15.19032884057954    6.41059179231108
H        13.41129862445754   16.03173422932205    6.77216682077571
C        13.32311711877622   14.41614277315169    5.36979605481840
H        14.27373668303378   14.65553923227271    4.91546268941452
C        12.59508220689976   13.33360790979557    4.91235731409359
H        12.97205267977463   12.72568023299786    4.10245180332663
C         5.74225815717084   12.11035539462363    1.54363665387316
C         4.41882299184520   12.24407654023448    1.95184399833159
H         4.07233789654964   11.68969990155378    2.81199032556716
C         3.55919536477219   13.08871778807179    1.27311449673195
H         2.53517498470186   13.18925004048914    1.60192171649496
C         4.00831146936669   13.80400670063383    0.17554557322698
H         3.33552621545394   14.46110394306789   -0.35518766940572
C         5.32352043270487   13.67426579952596   -0.23837646368286
H         5.67811362189683   14.22907822219358   -1.09474362091773
C         6.18715689845984   12.83558528207476    0.44268761601486
H         7.21281137969153   12.72985584233671    0.11970616882644
C         6.21830177373638    5.24699232837859    2.43234133153805
C         5.53573733511381    4.43841959217369    3.33574397746931
H         5.56439123534015    4.68104669522651    4.38806267896050
C         4.81712409944353    3.34363791218996    2.89078811837879
H         4.28670066789689    2.72563347094630    3.60031804806901
C         4.77701802653413    3.03917955443457    1.54033900465977
H         4.21792066821507    2.18265703972829    1.19424054376649
C         5.45636255624873    3.83727826048825    0.63512291999521
H         5.42984461886392    3.60289637464324   -0.41905747871861
C         6.17030521304142    4.93650372747753    1.07674173447087
H         6.70436225102447    5.55820999032222    0.37200604973790
C        11.86005218943061    6.13026055523593    6.36885661622415
C        11.44215152689780    5.48176703240103    7.52420774995147
H        10.43595519518200    5.63904953751572    7.88521188698960
C        12.31055639167034    4.65442255877124    8.21318663135998
H        11.97965062406096    4.16093175594832    9.11547582551498
C        13.60070364564519    4.46080140243704    7.75052213642608
H        14.27939954169022    3.81735961919866    8.29097663817993
C        14.01910829260907    5.09513635154291    6.59279920307578
H        15.02426169603813    4.94382727757508    6.22655799002847
C        13.15443343422123    5.92617926230897    5.90567398675479
H        13.48184351030577    6.42467172726016    5.00417192953655
C         9.81349409168988    8.03595242913910    0.94423697444435
H         9.63775857244633    6.99146743640749    1.21607379139597
H        10.56019778579463    8.08698903895902    0.14661524776475
H         8.88087469683344    8.47068940840072    0.59218135539923

