54
CSD_code = FAQZON | q = 0 | S = 0 | Stoichiometry = C19H32N2Ni | MND = 5
Ni        0.31283670907385    4.73024401339565   -0.38233581755296
N         2.02256852617331    3.34564988863085    1.28994456429180
N         2.12160092414131    5.29864424230643    2.17619554849545
C         1.58588046007958    4.61434646843310    1.13298109912795
C         2.83694399946340    3.23624400871600    2.37229343111460
H         3.30286879912354    2.32185761815832    2.67474491755764
C         2.89827300844728    4.46757647708176    2.93434224527525
H         3.43113244520007    4.78310283421633    3.80542502423067
C         1.57862550338233    2.30300422046522    0.37269132723468
C         0.20522936281955    2.76474396269596   -0.14675828267421
H        -0.54120438515304    2.56416439119258    0.64037512887826
H        -0.05963990438753    2.13597140010546   -1.00371073496644
C         1.48173363155121    0.96213879892014    1.10548749592803
H         0.90148086700492    1.07028278025433    2.01944878548744
H         2.46569914064975    0.56799528642621    1.35399588987305
H         0.98123489308461    0.24167288603000    0.46404764043481
C         2.59530410788145    2.20850408079115   -0.76971442442424
H         2.63225259900156    3.16451054102634   -1.29091716702393
H         2.29803822086691    1.43616565330566   -1.47290753125695
H         3.58868771460952    1.97659806846125   -0.38829446842667
C         1.88129322224539    6.71788201027716    2.43999028794827
C         0.36900258150585    6.95624662070120    2.40805529277176
H        -0.05045834379456    6.53611198070614    1.49169474303114
H         0.15070332286302    8.01972074505754    2.44668941403787
H        -0.10672252221924    6.46801654034539    3.25603743705015
C         2.59094984821711    7.52288081717365    1.34892212023794
H         2.24625627047551    7.18526023266872    0.37660333426783
H         3.66731072660754    7.37255758488664    1.40840225867588
H         2.37975273641146    8.58297542568628    1.45799556828090
C         2.42209608412370    7.12394242313331    3.81157561981472
H         3.50635472684013    7.04758653860208    3.85213588040184
H         1.98812958650971    6.51365629854140    4.60072615519476
H         2.15318540680714    8.16046984171234    3.99919180862305
C         0.28859432573620    6.66381423526873   -1.24519889708139
H         0.19451377432461    7.64725392927635   -0.78542987293614
C        -0.89071716998447    5.93042318027331   -1.36595899851296
H        -1.75746002117246    6.28382486730815   -0.80392970026708
C        -0.96178948205709    4.61541853831008   -1.89582388194243
H        -1.95313543811724    4.16540803154415   -1.81392137853602
C        -0.25628946923654    4.17154387112157   -3.16982567090828
H        -0.60092479784720    3.16274052750072   -3.41419460737858
H         0.82427563312440    4.10248706105440   -3.04463765324459
C        -0.55690676612255    5.07417611832499   -4.37698505295515
H         0.08287876818893    4.75284274445665   -5.20398234342058
H        -1.59463376609310    4.91708913332532   -4.68597811081223
C        -0.36732200175459    6.57300931021073   -4.14746921556083
H        -1.11868080470302    6.92498136958316   -3.43778696833364
H        -0.56438204291901    7.07960728105369   -5.09722489201575
C         1.01682243191638    7.01162950503756   -3.66929024851675
H         1.03735941703056    8.10519048242979   -3.70374882506047
H         1.77426439759933    6.64935659907451   -4.36931401515660
C         1.42200550841283    6.57385711110914   -2.24523470212011
H         1.83144555819444    5.55962340402759   -2.27272076798418
H         2.23918167587449    7.22719801960608   -1.92359878919552

