62
CSD_code = FARBAC | q = 0 | S = 0 | Stoichiometry = C31H26PReS3 | MND = 5
Re        6.05946591708418    5.16853209423612    4.32437351772209
S         4.37115946876838    4.35037293815151    5.74862819952556
S         6.74764448388358    5.48359243442650    2.08753604735495
S         7.65098447479463    5.81411243696207    5.61135492295268
C         6.29971668010987    3.03547252242047    4.03512389569078
H         5.50965987477928    2.88381373648229    3.27082351716677
H         7.25227307558353    2.70999066705163    3.60633491270106
C         5.96167904233494    2.24119830560431    5.23271829676311
C         6.56054852166128    1.02703300350174    5.54954238950059
H         7.35228198829325    0.64824261192721    4.91886371164746
C         6.13625414937022    0.30603913763044    6.65079368598644
H         6.60741934455121   -0.63673434887878    6.88646422669299
C         5.10836995365772    0.78319610589626    7.45183732220639
H         4.78009302985878    0.21226305647494    8.30751392306507
C         4.51638395344493    2.00089549424236    7.17306604748030
H         3.73615814038077    2.40202078938398    7.80218593812423
C         4.96140124964824    2.72919859603604    6.08123895651894
C         8.01626201067183    4.33338080398552    1.66280223757284
C         7.93637806683838    3.64909818191524    0.45585806842455
H         7.07945144382710    3.79967527639089   -0.18395886334856
C         8.95165487955317    2.78390378105660    0.09217796538486
H         8.88695965422965    2.24822331890075   -0.84377708331384
C        10.04490790903103    2.60184084959974    0.92354899141567
H        10.83370818144842    1.92198491767320    0.63731106698837
C        10.12558110475692    3.29268977611090    2.12308017524479
H        10.97732263148531    3.15465696439897    2.77270391525212
C         9.11703320171014    4.16014536780664    2.49509444579512
H         9.16068855648633    4.70060136549962    3.43193373559924
C         3.43311153431897    6.40248032173983    2.37230724615853
C         2.54974240163797    5.34306154731228    2.57964705467670
H         2.47461138821753    4.89880645518177    3.56555136847574
C         1.78487496936066    4.86770859934139    1.53196128180799
H         1.09708884006416    4.05038386893179    1.69375512601370
C         1.90994627655070    5.43325282543851    0.27203223627711
H         1.31502487036172    5.05823648003515   -0.54772671597229
C         2.80626754816445    6.46790485652303    0.05932591263514
H         2.91319986705701    6.89643866111856   -0.92641186030808
C         3.57528585211030    6.95171575484476    1.10287442922265
H         4.28902740736285    7.74566861519333    0.93543956252911
C         5.17859719852867    8.50405330648418    3.32403001346856
C         6.54701361114391    8.73053971310675    3.39157716456816
H         7.20989389654439    7.92266418946155    3.67928658429069
C         7.05205381243193    9.98349300780490    3.08998868070560
H         8.11624655863646   10.15850771402200    3.13926035629123
C         6.19451347012343   11.00846327167629    2.72864348132711
H         6.58949709800079   11.98552393175755    2.49264741288453
C         4.82631558983418   10.78655315677387    2.67392563899032
H         4.15833350434947   11.58952891039439    2.39833681543811
C         4.31458896300157    9.53947805834159    2.97496831881472
H         3.24790820614882    9.36118781865902    2.94153710784096
C         1.98955213589613    7.58704426898242    4.91933273242133
H         1.53362384498652    7.42757349158042    3.95157549500380
C         1.21834689119821    7.99559707915172    5.99332863399371
H         0.15849865893493    8.15747866808102    5.85934695469699
C         1.79840329626223    8.19304143424856    7.23534681503608
H         1.18818210087963    8.50649786525457    8.06952429083336
C         3.15755421151952    7.98405701133032    7.41169275710098
H         3.60838247451967    8.13375995717490    8.38129239221439
C         3.93346467523206    7.57488221933155    6.34526998383809
H         4.99537385758671    7.38897779561351    6.46647345212706
C         3.35022605609270    7.37317038695512    5.09674651542164
P         4.48340794457734    6.88472857327144    3.76553859507901

