37
CSD_code = FARCOS | q = 0 | S = 0 | Stoichiometry = C13H16Cl2O3PdS2 | MND = 4
Pd       -7.65539749108520  -13.67528489736022    7.65203587984235
Cl       -9.16894229280118  -13.32232677823047    6.02080797126134
Cl       -8.87352103426204  -15.47494435113369    8.24146526451143
S        -6.66017653653475  -11.54180548693907    7.16339378482060
S        -6.15060236464454  -13.93308673820974    9.47672623568921
O        -5.74250911231395  -15.73875236618013    7.22339249035868
O        -5.97622098571957  -13.96310139880289    5.46870193798184
O        -8.40879828783591  -19.46351069564928    3.30092764192260
C        -5.85679975340213  -16.51002149483843    8.40625251187380
C        -6.36921869782303  -16.17222832642937    6.08283377600846
C        -6.84217097281562  -17.44236780365659    5.84500327062175
H        -6.77504852067757  -18.21061355826627    6.59926644270313
C        -7.44065919306336  -17.73571369102504    4.61400164291057
C        -7.55548199822954  -16.74566145924404    3.64333778378756
H        -8.02817957715069  -16.99591217378131    2.70641308200369
C        -7.08715533011491  -15.46499305932545    3.87626368802674
C        -6.49574550238625  -15.16983703263887    5.09250092605936
C        -6.26487310837381  -12.81110399821693    4.69573768799760
C        -5.82496471698050  -11.61413109782445    5.52455701191323
C        -5.22187670393187  -11.64547443346720    8.29797616240789
H        -4.41013588817659  -11.05908457702840    7.86713180837218
H        -5.55518037245439  -11.16445756281015    9.21999189691722
C        -4.79416444635357  -13.07256392942404    8.57261084626996
H        -3.90993059731228  -13.08827126181037    9.21433964592483
H        -4.60217248273615  -13.61868688936856    7.64652319690388
C        -5.43549203241299  -15.61398071256709    9.56597251732274
C        -7.94772170948579  -19.08330081286647    4.34762935472983
H        -5.19706561442576  -17.38773892087882    8.36106850681583
H        -6.90001674192413  -16.82185864579601    8.54064941085506
H        -7.20704242557638  -14.70274469286528    3.12387558288195
H        -7.34336816978722  -12.75533675244499    4.49757375007036
H        -5.70288979521841  -12.83126712021513    3.75184948500210
H        -6.08229124693086  -10.68996769784571    5.00966877055335
H        -4.75359895701513  -11.65144740662356    5.71329077770624
H        -4.35525156743121  -15.47762190080878    9.59812050197822
H        -5.78141767491750  -16.03627311402556   10.50779009653024
H        -7.86871809769396  -19.76832716140101    5.21581865846390

