47
CSD_code = FARDEJ | q = 0 | S = 0 | Stoichiometry = C20H22N3ORh | MND = 6
Rh       -0.78854323597123    2.55697804954360    8.80963821717778
N        -2.61328135377466    1.91653341000573    9.52004231019900
N        -0.14751305025818    1.40685291192497   10.33161323293369
N         2.69223183276401    2.80424428936063   12.15455901892145
O        -0.89904689158099   -0.27945180222644   11.70095696730047
C        -3.85812286058768    2.26256845694924    9.19377994117138
H        -3.98273875668440    3.15908479344858    8.60070521865008
C        -4.96993074642536    1.53931173120153    9.58672459194236
H        -5.95467463063900    1.86966443374882    9.29543032379832
C        -4.79403974043026    0.39338760753693   10.35028321390628
H        -5.64073913861434   -0.20192512063204   10.65706301284316
C        -3.50915504307305    0.05005575155377   10.72180651446615
H        -3.28560697490943   -0.80325507477076   11.34313528418840
C        -2.44451742337578    0.83635571511767   10.29604138964720
C        -1.06459676651554    0.57861056796752   10.83436225287927
C         1.13299818676130    1.38367196133542   11.00285275263982
H         1.95097120497764    1.14622365197926   10.31330191882795
H         1.10458747484803    0.58693173590930   11.76072361536150
C         1.44931882811962    2.67925821619754   11.70413096773453
C         0.49759375376497    3.68506447581526   11.87105895827271
H        -0.50306170966955    3.55922528431310   11.47082716033877
C         0.86085488201650    4.84280684838241   12.53411681623153
H         0.14551115605609    5.64106058367351   12.67620189995827
C         2.15640925223745    4.96309435543748   13.01452844964619
H         2.47957475296509    5.84829914767352   13.54010189228272
C         3.02932086135405    3.91016893074734   12.79270674757887
H         4.05509739222432    3.95129496745322   13.13628901664694
C        -1.60254882608508    2.98215476696397    6.89843189296875
H        -2.60129375351996    2.55109256318847    6.80993362039979
C        -1.46293376330187    4.18146647760974    7.59299898233084
H        -2.35567666835027    4.61522134485126    8.04621125277670
C        -0.38656378796455    5.19852768610795    7.27541734933238
H        -0.13633731767895    5.13614977724784    6.21582354075131
H        -0.77774788774637    6.20184653422152    7.45480686266292
C         0.86940259994414    4.99398304900879    8.14111239836120
H         1.75579987389674    5.36629572977863    7.61661746466233
H         0.76913064559699    5.57800973314186    9.05946315309116
C         1.09075398145451    3.55332614624149    8.53654564752632
H         1.68744259972456    3.45052722381190    9.43856129054501
C         1.03261996992480    2.47099974070296    7.67244448459116
H         1.54508997190116    1.55646357017079    7.96997223158514
C         0.81207801226258    2.61201459722469    6.18132054919157
H         1.36459791863558    1.82611135288204    5.66340078169145
H         1.22363543857198    3.56653685333927    5.85144683830287
C        -0.67540877732941    2.50486716185996    5.80351361636499
H        -0.87372023674273    3.06850214762610    4.88513465700670
H        -0.91432124876212    1.45838766437053    5.59756170031398

