94
CSD_code = FARLOZ | q = 0 | S = 0 | Stoichiometry = C31H60P2Pt | MND = 4
Pt        2.44380639830086    3.60666433884763   -3.18373269494031
P         1.60787230508154    1.45092151753557   -3.27009029840923
P         0.23673879981800    4.16844562013630   -2.64989006219216
C         5.55319050124332    3.64340226284627   -2.60388516271343
C         1.44770835149663    1.01820168637170   -5.07343454222497
C        -0.80596393039003    5.53165182792101   -3.37131286062137
C         2.32523333141797   -0.08959720556072   -2.51391355126903
C        -0.90593341630884    2.69592001015617   -2.75623394946554
C         1.51715948420148   -1.37128949829322   -2.69900482768761
C         1.10514269175127    3.47973852483118   -0.17033366607595
C         2.61442169326012    0.14710086370971   -1.03201315666370
C        -0.16981316653652    1.35632629492820   -2.70691419590838
C         5.09265287359568    3.79814452045354   -1.15153221994456
C        -2.23433228458502    5.64336368812595   -2.84488555180639
C         1.05038028458041    2.31738078490285   -5.77798874591890
C         5.96916481321164    5.01091285114524   -3.14955263856866
C         4.43582805568201    3.00917123298041   -3.45112109304662
C         0.22453390813045    4.54388531619684   -0.82710720669169
C         2.76241972777261    0.49932660231429   -5.65406683631406
C         2.60023737572202   -2.32766887819618   -0.64378268030133
C         2.66079474893064    0.32187068593050   -7.16721940595415
C        -1.48195843629153    6.65867831630279   -5.50372378914341
C        -2.90870163206403    6.78900134803023   -4.97733358282327
C         2.29242461863610   -2.55477072171485   -2.12141775968835
C         0.81791121362767    5.93128843893547   -0.58401995244716
C         1.34454545335514    3.75403897264100    1.30933118023495
C         6.78313038314882    2.72277757453509   -2.63630486407843
C         3.38621696991604   -1.03343801297827   -0.45086103704849
C        -0.80360514275410    5.43460003197818   -4.89652654728559
C         2.29315318942956    1.63959191700262   -7.83969969231032
C         0.96569547425230    2.14732374936325   -7.28960006295015
C        -2.91248091364866    6.87016405916304   -3.45341491644577
C         1.95723819941814    5.13520209147212    1.50446980369243
C         1.04082912141986    6.19357770099195    0.90274273609478
H         2.94058368580171    5.03264143876499   -3.36634804113784
H        -0.79426116533671    4.49074485573006   -0.42102284497406
H        -0.25691704153475    6.44590969299668   -3.10923559593578
H         0.66009607499412    0.26439795609413   -5.21341285359773
H         3.29446625575423   -0.21121154495296   -3.01648633260945
H        -0.69896411079873    0.60634676246548   -3.30330869381255
H        -0.14088877023549    0.99233035593438   -1.67635592283841
H        -1.65218443211527    2.75593644975784   -1.95814012924913
H        -1.43447721112282    2.78904448020049   -3.70878393601934
H         1.77330918247054    5.99212361009224   -1.11499961432006
H         0.15599190463987    6.70189859825858   -0.98429484030136
H         1.47685562840997    7.18579334350161    1.03508792839126
H         0.07902187571415    6.17948399081127    1.42342592760702
H         2.92925529935262    5.17301801192098    1.00950826523223
H         2.11043879183964    5.33107468482662    2.56776527055978
H         2.00605337436617    2.98802463535926    1.71999107850560
H         0.39434194029643    3.69959538100030    1.84898973367620
H         2.06860362869237    3.46689098933643   -0.70623751651056
H         0.64041783836546    2.49815069961914   -0.28092596173242
H        -2.80391161464657    4.75175870839319   -3.11620513517078
H        -2.23649523825448    5.72888123997982   -1.75630841494740
H        -3.93906831219028    6.94395016390511   -3.08701771499436
H        -2.37960320331268    7.77055728183815   -3.13848802746274
H        -3.49281061352960    5.92135041151518   -5.29472765162841
H        -3.38107787905695    7.67956613804229   -5.39676739120157
H        -1.49253687654255    6.57566905825273   -6.59250085204225
H        -0.91428221132748    7.55413051696251   -5.24176967965648
H        -1.34180179998436    4.53915934312188   -5.21905769128365
H         0.22886976097518    5.35850881244832   -5.24891932900251
H         0.08584299317551    2.65947697890442   -5.39730169925538
H         1.80479297589263    3.08535002413508   -5.53322071843530
H         0.17463311580303    1.43180963739757   -7.53370840421836
H         0.70667568112553    3.10214263938609   -7.75221914568124
H         2.22547444897157    1.50331155965792   -8.92113296316232
H         3.07224496331355    2.37799266864714   -7.63969789782340
H         1.89821671876296   -0.42806179390951   -7.39657322295715
H         3.61409653213261   -0.04350585411770   -7.55526243015186
H         3.55471375954408    1.21650006914008   -5.42953462398997
H         3.02891351019667   -0.45876305293202   -5.20232176947253
H         0.56006461312977   -1.28869221701290   -2.17929898368320
H         1.31297874999488   -1.54852816394919   -3.75717617859716
H         1.71130656835580   -3.47179686365153   -2.24364627052989
H         3.22890600109168   -2.67738699182679   -2.67122375820389
H         1.66308612840226   -2.26867393224472   -0.08429319437857
H         3.17021040693064   -3.17175557759699   -0.25021268896431
H         3.57538946319562   -0.86721034808573    0.61184198761689
H         4.35284230144167   -1.11738008604152   -0.95316818682361
H         3.19090035678354    1.06897538586848   -0.91797125273418
H         1.67911251427616    0.26532190940400   -0.47862206722775
H         4.46658985869915    1.92966297226217   -3.23757023285085
H         4.71655417937333    3.12190233970636   -4.51048188683227
H         6.75777746564116    5.44248617249801   -2.53550273793486
H         6.33790955384077    4.91793147405282   -4.16862754445101
H         5.12212135869020    5.69098898451200   -3.15484584010632
H         4.21082427353242    4.43933649707697   -1.12200763003933
H         4.84240249384300    2.82807124285495   -0.72505407579383
H         5.87418797214049    4.24808240610028   -0.54080109982067
H         6.55185558602722    1.75288852560396   -2.19904647026179
H         7.11577022837089    2.56604770573953   -3.66053547460424
H         7.60503942085853    3.16224110925014   -2.07356374130952

