104
CSD_code = FARNAN | q = 0 | S = 0 | Stoichiometry = C51H40O8P2RuS2 | MND = 6
Ru        3.55090576534976    4.00973732261862   -1.84710502980185
P         2.04043150942826    5.64254155867319   -2.52166520125885
P         3.81807527708897    2.58909180962216   -3.67143702521735
S         5.91329853581822    2.93598101376408   -0.52242531747781
O         4.52951731649275    2.43577957618301   -0.67821652113249
O         5.93430416771630    4.19537303660029    0.20988680115675
O         6.62646498129634    2.94246202891022   -1.78019086860205
S         1.34206899719284    2.71070312181218    0.23460019304610
O         1.88473318553902    2.88688633894664   -1.13636570283507
O         1.40092979434168    3.95267716543470    1.00802767797190
O         0.04610385627376    2.08958805343178    0.17412220807785
O         3.45554513205078    5.15632114055451    0.07356345951266
C         5.02852786682231    4.97734258457138   -2.35525867814884
O         5.91681069579549    5.63752338911758   -2.64450035776597
C         6.65003767564709    1.70877672555416    0.55787236203909
C         7.31481665723207    2.15665506446641    1.73669091722063
C         7.63979439940846    1.29975559963631    2.73222693126105
C         7.21315241126997   -0.05985144841313    2.61899562892383
C         6.76447720477105   -0.59638008517521    1.28487007056863
C         6.50375462226412    0.40664178705752    0.25416418088416
C         6.50060065322511   -0.90469750654606    3.54827804537939
C         2.44615786271393    1.58834963195734    1.07989558008478
C         2.56074874279846    0.28263424705429    0.65031278780466
C         3.57241094735591   -0.51158454716615    1.15511755324924
C         4.43953970700575   -0.00118432961833    2.11849137315078
C         4.22121951423371    1.26974911241744    2.64534060312524
C         3.23144515078109    2.07006306622102    2.10594523759329
C         5.70483759460859   -0.68067996783294    2.39694233579602
C         1.28799289988048    5.56096622779984   -4.18132333114346
C        -0.06944869242427    5.70010849401851   -4.44522312669741
C        -0.52440011558542    5.64812613255617   -5.75222358235333
C         0.36820496626990    5.48164664234619   -6.79738501574928
C         1.72586337974684    5.37091323186168   -6.53887936552380
C         2.18317728679841    5.40234765322449   -5.23547792154858
C         2.65600747212689    7.36437166585089   -2.53819642425389
C         2.05433634418149    8.32527900074358   -3.34636489820302
C         2.50783756029236    9.63208779552503   -3.33054473401263
C         3.56130297476363    9.99515889577418   -2.50801209791261
C         4.15607348005482    9.04642673016656   -1.69282996492245
C         3.70692649472333    7.73778884286789   -1.70509195994715
C         0.65749099013818    5.72989649074654   -1.34281665129900
C         0.67350355391480    6.69139263446639   -0.33473588184932
C        -0.30985459244703    6.69593992573902    0.63635630760458
C        -1.30982912685219    5.73886364414190    0.62071621957877
C        -1.33098686326666    4.77935334474976   -0.37658692219824
C        -0.35338976754549    4.77065724781078   -1.35311709381312
C         4.47983249427235    0.95422010587122   -3.20714596648464
C         3.59170351463564    0.13139779011156   -2.51721406547209
C         3.95160165967226   -1.16054758314263   -2.18670889460498
C         5.20815523751790   -1.63823464285907   -2.52837939553961
C         6.09927084517536   -0.81638130895383   -3.19842651229547
C         5.73897249188508    0.47654025322964   -3.54478492970136
C         2.31968366710341    1.97346064405706   -4.51415160105922
C         1.06840561839971    2.42370059896815   -4.12474186592637
C        -0.07355027421295    1.95492650698641   -4.75044686845087
C         0.03217061060952    1.02273452725063   -5.76822103513754
C         1.27878079247574    0.54269472791423   -6.14141687667204
C         2.41947763888235    1.00848262866844   -5.51540374007001
C         4.88938144802335    3.11354377833926   -5.05801111252731
C         4.41464834902879    3.23725726672171   -6.36108153771082
C         5.26008279601242    3.64639470373756   -7.37736694859194
C         6.58577292147214    3.94151251085811   -7.10811906857799
C         7.06249860015049    3.83070315820154   -5.81245873409190
C         6.22260942382226    3.42395161464041   -4.79029961437039
H        -0.76695205379993    5.85323271176710   -3.63453750565718
H        -1.58060689491015    5.74731244786641   -5.95519002692320
H         0.00696276450978    5.44622150073783   -7.81431188947285
H         2.42542126209986    5.26387835553811   -7.35414502326333
H         3.23986344512818    5.31283630846721   -5.00593858108134
H         1.23151021751154    8.05219720082790   -3.99045365727261
H         2.03595501413835   10.36948852260445   -3.96312424320918
H         3.91489253813947   11.01545736252942   -2.50053844265630
H         4.97345606750741    9.32514321742678   -1.04490992178223
H         4.16183925671691    7.00257274337360   -1.05751943069772
H         1.46763295012594    7.42363202171100   -0.30337744336202
H        -0.28269907595650    7.43908722882566    1.41988709707222
H        -2.06319867543508    5.73061377108367    1.39421581531431
H        -2.09020796642546    4.01303346466954   -0.38003000467545
H        -0.37179276073211    3.99646633537969   -2.10439606401159
H         2.61959715493125    0.52405652579827   -2.24956620685236
H         3.25123986281488   -1.80290092486511   -1.67348343262072
H         5.49144419208993   -2.64900227377942   -2.27220894892115
H         7.08074161294175   -1.18429419907994   -3.46028241081101
H         6.43809273671527    1.10485665375763   -4.07312070718187
H         1.01298405140159    3.11850888778352   -3.29989029613006
H        -1.04479387548044    2.31088063109306   -4.44039012375637
H        -0.85548066727898    0.65616856623496   -6.26211523282113
H         1.35980748874332   -0.20111780398461   -6.92055536838461
H         3.39120430709699    0.62488279925707   -5.79613456488645
H         3.38138283446460    3.01846777933051   -6.58365776487403
H         4.88049888795882    3.73422647947320   -8.38523326694277
H         7.24236924653768    4.26021227821079   -7.90412949031246
H         8.09318574956115    4.06519482274470   -5.59268568675604
H         6.59595960526563    3.34714540598193   -3.77923633519207
H         7.52674799542519    3.21270419442034    1.79688801595442
H         8.14979577873106    1.61371214651716    3.62999922856669
H         7.15575047509326   -1.55686965107977    0.97039603464418
H         6.09653765131888    0.11652754447715   -0.70076286281707
H         1.87293432681145   -0.07939748571718   -0.09684896613358
H         3.72251739136312   -1.51660019150615    0.78941552843092
H         4.86367018990902    1.64311583940439    3.42963966196495
H         3.07378454532406    3.07835754378812    2.45695819759038
H         2.68854277306410    4.74378115215024    0.57172433350168
H         4.31039329235705    4.85647271593136    0.45568595334034

