61
CSD_code = FARREV | q = 0 | S = 0 | Stoichiometry = C30H24MoO4P2 | MND = 6
Mo        2.69199453860536   -0.21303660362694    1.62803896030017
P         4.90100289945780    0.64326443092936    1.80092672624940
P         2.59487072720017    0.56093551931867    3.87181860036852
O         3.03355522303496   -1.05877049689001   -1.32339267524733
O        -0.19084953022556   -1.32191741616084    1.67638098269940
O         1.54447211581573    2.55437144525098    0.83832422941236
O         3.90012872186765   -2.93586183139990    2.48000707669768
C         2.89794052686646   -0.74805790580414   -0.23165420504837
C         0.87764773347448   -0.91649400126424    1.64918291609107
C         1.98249376651072    1.53418718297741    1.10676019884758
C         3.43122797531493   -1.93818637001370    2.18089811764114
C         5.05068814775787    1.66046395459320    3.33248287002488
C         4.29589988571177    0.96594194676318    4.45880665227728
C         5.65412926520012    1.75492587216029    0.57831920421778
C         4.90573647543625    2.18418426841600   -0.50955771139588
C         5.46893299458962    3.03164006755230   -1.44815445634242
C         6.78117001352755    3.44881923645090   -1.30470156819051
C         7.53584313040952    3.01348463735242   -0.22566858170375
C         6.97829447725458    2.16669024663884    0.71248815484049
C         6.22342146192513   -0.59490329905564    1.92910217248371
C         7.03983285122603   -0.82204275492719    3.02951574230667
C         7.97698300360919   -1.84165647631020    2.99454405746998
C         8.10693431350429   -2.63533012660122    1.86879628593614
C         7.29509803668225   -2.41281548016965    0.76661509898196
C         6.35650026114533   -1.40171617057610    0.79972286282743
C         1.98061049055205   -0.43172267160800    5.26286876613256
C         1.88275075516635    0.11798482474596    6.53928088697667
C         1.41221788723038   -0.64965843969451    7.58682013662296
C         1.03089915161292   -1.96498985508016    7.36807420113113
C         1.11575332068606   -2.51108052530461    6.09873451707005
C         1.58792712427269   -1.74576190768474    5.04625223124051
C         1.63149519048758    2.07640855538986    4.14281202120775
C         0.27268545719780    1.94237219434051    3.86027090631955
C        -0.57906211420845    3.02119313014135    3.98282326088606
C        -0.07890094321608    4.25177399621744    4.38138761145806
C         1.26901874112356    4.39291777091520    4.65938867919771
C         2.12625509864385    3.31093332772334    4.54302688062907
H         4.57245651276414    2.61868456062771    3.08587319351854
H         6.09828705037726    1.85597695761540    3.58901195285244
H         4.75739425548690   -0.00508275418971    4.68660269577082
H         4.27668791074692    1.56085754052281    5.37928512618775
H         3.88356477730432    1.84364385119975   -0.61902720798636
H         4.88403582477078    3.36305322245178   -2.29336737587954
H         7.22144841654776    4.10875716084053   -2.03754872817241
H         8.56267950737899    3.33274809913908   -0.12075057049473
H         7.57020709194814    1.81047363484356    1.54554456276017
H         6.95529172568587   -0.21505896941472    3.92015314989975
H         8.60685288921290   -2.01695992041017    3.85501466525004
H         8.83735624220554   -3.43050713828911    1.85072513503329
H         7.39198105471062   -3.03297347698083   -0.11219520866098
H         5.70699263951958   -1.22144923973784   -0.05041231989574
H         2.16357824179625    1.15027432723513    6.70286328374917
H         1.33650319766848   -0.22260724943869    8.57637045316283
H         0.66045777240285   -2.56107841685287    8.18898011614491
H         0.81026666447764   -3.53254651024617    5.92666851906256
H         1.64749085035914   -2.16045653745265    4.04758389250969
H        -0.10129736647766    0.97565032701569    3.53979998422791
H        -1.63021327487382    2.90880228548192    3.76207196982967
H        -0.73997083173307    5.10097201332324    4.47072190000738
H         1.65984652568203    5.35240933719141    4.96686191684566
H         3.17590314657208    3.44462661980612    4.76482708365476

