72
CSD_code = FARSIB | q = 0 | S = 0 | Stoichiometry = C27H36CuN4O3P | MND = 4
Cu        5.19178357509083    2.60841175405526   12.63515669799710
P         3.24665257538926    2.57680359693996   11.41611099481735
O         5.22883053768267    3.70263785762812   14.48943183630967
O         6.85444210390299    3.62397403487855   15.87582433621560
O         6.92653996336424    2.51005156688526   14.05190112593338
N         5.30591299425076    0.33577232988334   12.47580946926705
N         6.26600903491020    4.14247077438086   11.43191528693797
N         1.80152007101669    2.84103224894659   13.59729535791679
N         6.35385614608465    3.28571817514325   14.83357850335556
C         2.33938025540100    1.00213025322060   11.33028432322241
C         3.03850044561623   -0.20392775868466   11.48074753524721
C         2.31180855809233   -1.38430223539733   11.56892653435029
H         2.83784314898965   -2.32099069234902   11.69317415880274
C         0.92967674009997   -1.39250615435923   11.48658521541607
H         0.39061569967922   -2.32502574871291   11.56360105505614
C         0.25003121404567   -0.20604607631211   11.27734116405169
H        -0.82508838955206   -0.20435982399572   11.17197561522795
C         0.95492198110700    0.98143052090813   11.20655597039867
H         0.43205958288750    1.91020526885090   11.03608634897667
C         4.54170539082390   -0.28937062687963   11.39679886108598
H         4.81505216453147   -1.35780515747148   11.33234519811232
H         4.85575303643931    0.18748595978227   10.46176110281357
C         6.72496971325705    0.13293767635626   12.20898285416133
H         7.30299157830771    0.63674379686716   12.97798104986357
H         6.97985165830167    0.56296928740567   11.24252687296162
H         6.98388357752544   -0.93582317310213   12.19871355698079
C         4.96343765715527   -0.27028460693981   13.75350302857371
H         3.89898580067042   -0.15007484777347   13.93841204881529
H         5.52329979904457    0.22417397965568   14.54359059939096
H         5.20658007262113   -1.34281313346565   13.76795618467742
C         4.01367346718626    2.55919251624900    9.73084255695313
C         4.96263660590662    3.53521349194088    9.40868281285898
C         5.54673983808362    3.53184598245402    8.14846185428078
H         6.27520539472393    4.29163326870724    7.90094088377381
C         5.21126793071651    2.57812123904070    7.20403598083545
H         5.67915055987903    2.59056313827554    6.23105408605048
C         4.26546192178714    1.61747496393740    7.51454739857209
H         3.98274891451732    0.87421381921076    6.78340109772969
C         3.67261642516676    1.61464470447882    8.76424515274969
H         2.92151372692302    0.86992025428437    8.98906647257414
C         5.34655466967529    4.60724799533782   10.39085244959239
H         5.80020060903159    5.44734901302954    9.83713686344203
H         4.44506548473999    4.97963438455158   10.89119828247972
C         6.62004841232907    5.26740953710720   12.28622604664129
H         7.34782623524275    4.94462207237307   13.02666934671638
H         5.73384144004226    5.63156896394025   12.80259683919468
H         7.06149958681591    6.09009653021923   11.70537707802347
C         7.47478921650681    3.56270937259768   10.86602301866873
H         8.06129295538080    4.30755850003867   10.30967307063463
H         7.21255138131946    2.75022991093137   10.19148925194037
H         8.08048175034050    3.16328859959458   11.67687987319201
C         2.03943368598301    3.90933055239907   11.06353811710884
C         1.66896398275127    4.71484491990910   12.14544116737190
C         0.87097254304357    5.82663626090973   11.93536172796463
H         0.58782039490107    6.44715780896452   12.77387423989790
C         0.43342402987798    6.14265139927445   10.65913407032325
H        -0.18909855282652    7.01097548347747   10.50212695407430
C         0.78342583910318    5.33645258563924    9.58935663046167
H         0.42949440753588    5.57113985485822    8.59618031905640
C         1.59232580783429    4.23040245923897    9.78649888400299
H         1.86970977039346    3.61352907123391    8.94384661576745
C         2.10999990409015    4.26428990525643   13.50476394738330
H         3.19457231578267    4.37596913369950   13.60916797356839
H         1.62305134025948    4.85024405858270   14.29845609739152
C         2.47319225578680    2.21515662703547   14.71945459766269
H         3.54717137479130    2.32554197479057   14.59491772124275
H         2.21438006167697    1.15715701236096   14.74119957254108
H         2.18105257456531    2.66639679076515   15.67643323135238
C         0.36628303999054    2.65668879401133   13.73614240124539
H         0.00166258794909    3.05796272797422   14.69281987720550
H         0.12876770792819    1.59476434977047   13.69283975474482
H        -0.15757828442606    3.16905092517597   12.93107279569102

