102
CSD_code = FARTIE | q = 0 | S = 0 | Stoichiometry = C43H53NRuS4 | MND = 5
Ru       10.40557506343395    3.27153390897945   11.51800909731717
S        10.08846049750983    3.31965167156101    9.26770310063603
S         8.42092682363172    3.53016538086251   12.57353800234776
S        12.03934584019477    2.89530476067957   13.06986080358904
S        10.14707620345932    0.87444915760085   11.40955739968871
N        10.77264117763482    5.38070767595371   11.54019638638763
C        10.23514221742951    4.97785279802288    8.67681230913611
C         9.20524202854135    5.90425815448874    8.88300070600717
C         9.39643734262660    7.21208645722199    8.46865127424448
H         8.61438998575587    7.93675606891064    8.64811299741691
C        10.55440387668181    7.61143230795405    7.81640308616125
C        11.52104829599206    6.65489103206394    7.54343003850775
H        12.40427031909228    6.93712837451631    6.98607738332743
C        11.38168593310858    5.34060847283129    7.96012193171267
C         7.91246479725229    5.48730852154850    9.50489891732690
H         8.08349422376788    4.91686527428522   10.42001257225891
H         7.36827286540563    4.84053685558431    8.81574725572970
H         7.29467348215737    6.35156681299050    9.73515353481388
C        10.74436099309219    9.04246285367235    7.41542673809267
H         9.84548074482825    9.43206524468133    6.94130655364034
H        11.57825828632348    9.14762297687941    6.72585928777609
H        10.94783373942914    9.65217820154962    8.29656490685261
C        12.43833016998944    4.32948782789756    7.63805235590220
H        11.99351432356064    3.46841041411123    7.14141927375508
H        12.92019050416600    3.96347670553580    8.54436949364617
H        13.19892792291514    4.75807465985257    6.98998676849631
C         7.67616940543869    1.96472083943683   12.85611182224785
C         7.85770175616319    1.35148480135110   14.09924015938282
C         7.22241326029653    0.14506368810260   14.33803803823267
H         7.36445231002644   -0.34263230796200   15.29244916725506
C         6.42113213573542   -0.45601837858288   13.37727138655141
C         6.26176486071922    0.17439873255438   12.15085370034463
H         5.65001370984088   -0.29109327488609   11.39098187389973
C         6.87552543579654    1.38273965174258   11.86904943454299
C         8.75769472546227    1.97025054570630   15.12132775032810
H         9.75633639835106    2.10598698068187   14.69555886314894
H         8.83432384065890    1.34202785380837   16.00541547674260
H         8.38633715686030    2.95211534464601   15.41591492005760
C         5.76965339687018   -1.77830721917734   13.64362689973439
H         4.80495233789237   -1.84330528278491   13.14508150195092
H         5.62956764027746   -1.93604525809430   14.71048325776471
H         6.39938653621240   -2.58291265812259   13.26213644774595
C         6.71733903779329    2.03966955941512   10.53687631033356
H         6.10082513733515    1.43568386124922    9.87678249520458
H         7.70098097194562    2.16852277173461   10.07615888029942
H         6.26227243165920    3.02453965077478   10.64592161454660
C        12.82705146973110    4.41345391036452   13.49946610955508
C        14.12541428794650    4.64887769132030   13.02688474484479
C        14.73152796991263    5.85883061571682   13.31900128771250
H        15.73361015696899    6.04658904372499   12.95736444199569
C        14.08630882443311    6.83659520502396   14.06507844356733
C        12.82708755665574    6.55647275959690   14.57182292125331
H        12.32667301002543    7.29112794565724   15.18744107748450
C        12.19183298014704    5.34923469113558   14.32425012413508
C        14.84745837522039    3.61999383085043   12.21169968592760
H        14.46163077908710    3.59279688104335   11.19148186897153
H        14.70666297588868    2.62692626054157   12.63555265739336
H        15.91103608818418    3.84250923585945   12.16743310581703
C        14.76130241550129    8.14523812134091   14.34174666426654
H        15.54634543482565    8.01232437335567   15.08666410450112
H        14.05151932203867    8.87627689885153   14.72134105088079
H        15.22430714680629    8.53757715982334   13.43778979574364
C        10.86928700452725    5.05042035319691   14.95267832450596
H        10.17566304787062    4.62467024796902   14.22509842270546
H        10.42991111975344    5.94873569814331   15.37919273512927
H        11.00098782472056    4.31525093620590   15.74753421032069
C        11.67521731449838    0.07566994693419   11.76867919232190
C        12.83003497372864    0.32135317249053   11.02079365614617
C        13.99410764654823   -0.36271382151399   11.33089937369069
H        14.88803000419431   -0.16233420123407   10.75495718769645
C        14.03576878253934   -1.30189495025865   12.34986727019932
C        12.87122565732386   -1.55168084620010   13.06214852647387
H        12.88437513502374   -2.28851772598689   13.85390120983146
C        11.69016341064019   -0.88310049127270   12.78840431802437
C        12.81653703027518    1.32130778983239    9.90969135567258
H        12.54466806429597    2.31024903573904   10.31095721661155
H        12.06315666131749    1.05510682615424    9.16658950758483
H        13.78946298860966    1.38888686559109    9.42736863869009
C        15.30726428800684   -2.02146093862672   12.68768211572611
H        15.78596957040876   -1.55311033983202   13.54893993764177
H        16.00474084444711   -1.99138047516961   11.85357832358668
H        15.10621948056832   -3.06035929008969   12.94168859504983
C        10.45043736521266   -1.17833885610778   13.57120548571931
H        10.63082015028498   -1.95884981463730   14.30643585968586
H         9.64761848248627   -1.49058897340903   12.90438086051154
H        10.11019683558255   -0.27918938009233   14.08052291185394
C        11.93615872031853    5.74782214388557   11.01465144615836
H        12.56610561062773    4.95532729775886   10.62329626807729
C        12.36509043917729    7.06569774820272   10.94722742865881
C        11.52122708994978    8.03810051512520   11.46189341354999
H        11.81239184749855    9.07842342192773   11.43552107953374
C        10.29980700631813    7.67144667378437   12.01347331055892
C         9.97388243377342    6.32416261670585   12.02671723806393
H         9.03443595315203    5.99182065977029   12.44803403541127
C        13.67826001615625    7.39949286344810   10.32020204175817
H        13.94896254390541    8.43328381044973   10.51708962359781
H        13.61533383235336    7.25491555313454    9.24222453832789
H        14.45860647126325    6.74711622774772   10.70558668382091
C         9.36016869193181    8.69409490503409   12.56573469629832
H         8.52620719761669    8.21872418031275   13.07408707211006
H         8.96848895079717    9.31364055733668   11.75973404429561
H         9.87765057438671    9.34740296204296   13.26576158582879

