102
CSD_code = FARTAW | q = 0 | S = 0 | Stoichiometry = C43H53NRuS4 | MND = 5
Ru        5.40478133345710    1.85546544225390   12.56613270436700
S         6.76025633931328    2.28835768868184   10.78916298980230
S         3.51617776478993    0.81643695760164   11.88317151450762
S         5.44303452252630    2.00826031973790   14.83141158975482
S         6.59334747161979   -0.23341072188275   12.78960925416639
N         4.46056620870304    3.77706505934436   12.41702154310375
C         6.49791104545474    3.91792586197222   10.16639861163487
C         7.48909161875197    4.88277392130092   10.39324992433292
C         7.29851282762627    6.16305409212269    9.90219921018521
H         8.06080152810607    6.91034239638472   10.07465415327241
C         6.16147850707531    6.50686648571512    9.18317138100495
C         5.20895916852128    5.52796057895105    8.94510145950636
H         4.32935812695092    5.77307186594720    8.36601691754734
C         5.36366776147375    4.23017648454167    9.40804685492659
C         8.73714255367673    4.54272983357357   11.14857599600852
H         9.48630190272366    5.32038631245175   11.02190559983017
H         9.14540812171055    3.59295416317445   10.80600891685596
H         8.53023688904449    4.43921849434973   12.21472847398796
C         6.00444104371498    7.89080213676977    8.62961244914609
H         6.59366928054377    7.99138003964077    7.71746718379944
H         6.36229781978368    8.63684817202904    9.33692327527674
H         4.96583460519439    8.09977449114958    8.38487287312348
C         4.35399639533397    3.18330290294016    9.06266129362890
H         4.75609028606249    2.53046203409495    8.28688494194468
H         3.43648587723829    3.63510519298768    8.69373140027604
H         4.12152857987495    2.55940528861176    9.92790691915342
C         3.78282523251450   -0.91496385966761   11.76088633495107
C         4.11123345756406   -1.45422773060638   10.51264893230549
C         4.26177784985865   -2.82494961941395   10.40734873792519
H         4.52575339329199   -3.25383058200722    9.45062646379063
C         4.09598158943408   -3.66089367414104   11.50486450382103
C         3.77539594634494   -3.09758959908573   12.73079793402599
H         3.65712746859172   -3.73580090346642   13.59508738267235
C         3.61204860207416   -1.73019259274716   12.88235936050339
C         4.33922767421757   -0.55383147187010    9.34001529924802
H         4.64818241660954   -1.12194679463841    8.46594681213994
H         5.11895126229838    0.17395637194637    9.58389006364854
H         3.43175022571779    0.00065576515837    9.09949668826252
C         4.28851638790735   -5.13908273510483   11.35672765714407
H         3.97379863459195   -5.66602088975139   12.25386595570324
H         5.34052805021674   -5.36149887924836   11.17770913733826
H         3.71999124607905   -5.51668797079986   10.50822154696039
C         3.29334373171999   -1.13087319275905   14.21305619468199
H         3.24439230721418   -1.89666744800495   14.98230786255007
H         2.34069942489169   -0.60145897145639   14.17754306839901
H         4.07220214190060   -0.41206575988608   14.48369774966255
C         4.67729170067463    3.51428626851745   15.34702126923757
C         5.48327204559389    4.56784395209747   15.79530858378199
C         4.88206794801033    5.76686627538226   16.14114384953257
H         5.50231902592149    6.58683518141484   16.47582411180506
C         3.50727775558568    5.93971241562364   16.06836837903072
C         2.72423288382700    4.85897618579142   15.68938688415578
H         1.64866209885773    4.96633189501812   15.66802198236092
C         3.28266866940091    3.63865508773319   15.34521963466591
C         6.96753390588952    4.40513379112522   15.90765764590470
H         7.20300402597678    3.53283184109374   16.51577741795675
H         7.41898605578343    5.28476964469670   16.35949163589028
H         7.42065785992628    4.24561042362065   14.92955863956936
C         2.87540254780970    7.24776591003637   16.43554231315680
H         1.99888979557680    7.43925044051204   15.82013998929422
H         3.58006703357807    8.06752980609320   16.31610541707274
H         2.55536824671494    7.22778721527723   17.47779202060073
C         2.41270703199726    2.47248305497299   15.00539266613329
H         1.37190577908798    2.77446417286588   14.92158396207336
H         2.49710655875145    1.71396784459442   15.78431580800046
H         2.72681025481060    2.01047823147705   14.06679500080296
C         8.23852885609659   -0.07767155693102   12.17889959495235
C         8.65642044025433   -0.96738958232428   11.18190354779670
C         9.95623682653361   -0.88557587895907   10.71374382929701
H        10.27859084971645   -1.56796273461999    9.93886390163739
C        10.85589935088483    0.04878982366545   11.20916129583594
C        10.42829798042630    0.90521456204184   12.21089261988679
H        11.11674928105835    1.63259407324337   12.62063776982211
C         9.13761005677547    0.84896281365307   12.71275437853792
C         7.71197083103310   -1.98630890301721   10.62795395808137
H         8.20723279063618   -2.61706688528941    9.89362627854708
H         6.86518671868628   -1.48996687200720   10.15858229761264
H         7.31430403412582   -2.60868445887952   11.42849417133174
C        12.25343708270219    0.11467431700981   10.66948795180438
H        12.23851319499490    0.33242833347511    9.60171927252769
H        12.75884867983194   -0.84083358726637   10.80652072112021
H        12.82966488721301    0.88719480862942   11.17310082803968
C         8.70947913900978    1.78316969981665   13.79787396178324
H         9.52801485722904    2.42772972748133   14.11086029810484
H         8.34080117468747    1.22366074484876   14.65888187621610
H         7.87920592520800    2.40753644489031   13.43507685071337
C         3.18734969674078    4.02599249229243   12.12503301195232
H         2.57347642171202    3.17211696440711   11.87100930268184
C         2.65055857665848    5.29768168032789   12.14423664972718
H         1.60642246197834    5.43721815328234   11.91069792601805
C         3.45232235443354    6.38307624827664   12.47567688333280
C         4.78891061384291    6.11564616784921   12.74968988261466
H         5.47089386233078    6.91135069301887   13.00400759181061
C         5.24125903651482    4.81424931702795   12.71423601697884
H         6.27781851152074    4.59080695927718   12.94236549391414
C         2.91738644263739    7.78014602966140   12.48958277950209
H         1.85181348384707    7.76572712913934   12.72483452117521
H         3.43388953177872    8.36299358136069   13.25392438913051
C         3.12848804111807    8.43526118764253   11.12291283975909
H         4.18714893768040    8.46093908061339   10.87922519139886
H         2.74382326141970    9.45199667698017   11.12687179631009
H         2.61290996244075    7.87027815449208   10.34978799202065

