57
CSD_code = FARXAA | q = 1 | S = 0 | Stoichiometry = C22H26CdClN6O(1+) | MND = 6
Cd        2.69098216083155    7.07139961632317    4.56677861335441
Cl        4.54440492643025    6.00837541702773    3.68638233657489
O         0.46978802071527    8.02005150376918    5.59361321966832
N         4.01609231582561   10.97374919639717    5.59476454202020
H         4.04127860713103   11.92912826317007    5.27654293816829
N         2.33981142606255    3.06311518268593    5.08035329667993
H         2.42450500078530    2.24335446880875    4.50112050897115
N         2.26446827769575    8.90693519939863    3.23846026518110
N         1.30645217121163    5.86030457173947    3.08263260885648
N         2.04552331254462    5.18911424598487    5.64731264891714
C         3.36358431877936    9.93285925000042    5.00600214403720
N         3.59707246446053    8.79852766691750    5.63562780363057
C         4.72961931850178   10.46885467859793    6.65074573719389
C         2.59784721125175    4.53456195520905    6.71410862109640
C         2.80146097034464    3.17856539552323    6.36442176185637
C         1.77248300977482    7.48852662184992    1.30715072744652
H         1.58472237459189    7.61687286664771    0.23999708359620
H         2.81811443828936    7.19700230179970    1.43977252858151
C         3.36004867849242    2.26923115308265    7.25220726246241
H         3.51916732729637    1.23823127365202    6.97936384957191
C         1.54644804102951    8.83772257206937    1.99670239860484
H         1.87524884058372    9.63611808611329    1.31837792964686
H         0.47612687115230    8.98649178918578    2.19445706069777
C         5.57764548024200   11.05020638850248    7.58364730692012
H         5.79124326842751   12.10714747385444    7.57300098857244
C         5.88048993397615    8.83036438257511    8.52757185636937
H         6.36320190292734    8.21827144608658    9.27336356711915
C         3.49827186627428    4.08738084000113    8.85691675118355
H         3.78430549852847    4.40727417986119    9.84709705348737
C         5.03889186285783    8.24432348469537    7.60969730534553
H         4.85196565819751    7.18081604969483    7.59156707659037
C         2.94289606200493    4.99603423471665    7.98428845642442
H         2.77624483189862    6.02705917868366    8.25999037859856
C         1.39442428634556    4.61782057060457    3.36071926368756
C         3.70489815375943    2.74930082788527    8.49758941304492
H         4.14548575514735    2.07883042271904    9.21863763604007
C         4.45043362348238    9.08106455508230    6.66168028908951
C         0.87805215008115    6.34117467186618    1.79589947643034
H        -0.15314341462319    6.70222475965473    1.90092349321623
H         0.89284519936771    5.55539214227055    1.03242137510245
C         1.91439520720130    4.29268546319595    4.68498074825226
C         1.03410181993144    3.46665465113859    2.46433636924282
H         0.18691272135709    3.71176608135226    1.82901611973503
H         0.77423511228333    2.58588653905765    3.04499683108088
H         1.88426917821978    3.22718144479495    1.82458197416339
C         2.55112939213265   10.01600695902715    3.79850980524736
C         0.38550802968698    8.07315480763460    7.00939921205998
H        -0.53728306213071    8.56984462866398    7.32340557753224
H         1.23863136757944    8.65368292494692    7.35618055547766
H         0.42769844217571    7.07302323347264    7.44796708287679
C         6.14049863773953   10.20751664170855    8.51861525821310
H         6.80849737902158   10.61565757232224    9.26078290364673
C         2.15246989997289   11.36971330494521    3.28835042896522
H         1.13219617938562   11.34010788170171    2.91099557152671
H         2.80400434952669   11.66411828102254    2.46432373966808
H         2.20703017128390   12.12667655817280    4.06485640446450
H        -0.25899702805827    7.47284414213849    5.27849384382171

