54
CSD_code = FASBOS | q = 1 | S = 0 | Stoichiometry = C15H28BN6NiO3(1+) | MND = 6
Ni        2.48080715885993    1.86056995833973    2.20100689628243
O         3.66231978690202    1.11175700002464    0.61607789557308
O         0.80359667439131    0.52640537730907    1.05555459651234
O         2.67965567170845   -0.01093791627139    3.14582713161179
N         2.34145117123804    3.53920378077133    1.39868531669593
N         1.51605932294511    2.58227061292927    3.63390742753117
N         4.49268758128769    2.40990399235486    3.18762404891013
C         5.65448377343525    3.97750702254340    4.23168759559000
N         4.46159551674355    3.66418490233758    3.68687616533853
C         5.70926243669310    1.92127531222860    3.41843609820301
N         2.03035038084767    3.67271410387574    4.22916376732652
N         2.78842796008470    4.59871877588792    2.09435496123178
C         2.80014487888374    5.68246442489296    1.30429359323476
C         1.51117396744587    3.05596093781025   -0.91416204241993
H         1.96100587334652    2.06760901050485   -0.87024991754212
H         1.72184462493161    3.49422834274781   -1.88580908956440
H         0.42864256882175    2.97114215773724   -0.81674831386046
C         2.05718071472315    3.93630060290450    0.15371260512657
C         5.95770567648645    5.28392866472682    4.86741061969295
H         5.29383212936942    5.46843687128188    5.70974890691910
H         5.83337250152613    6.09845084257233    4.15644703488734
H         6.98364374773636    5.28421350507974    5.22376624943013
C         0.51132537899680    2.12056758934281    4.38555689244155
C         6.48199970611217    2.88119983234032    4.07746698866954
H         7.49870105042823    2.78523685027261    4.39708149989208
C         6.12074552412400    0.54990270993294    3.00493780405559
H         5.25229302236884   -0.09380162931878    2.87864743220093
H         6.76954880773093    0.11601731145967    3.76188362514386
H         6.68335151935785    0.58198004196505    2.07105244385738
C         3.24931434014918    7.02578276373447    1.74140615149400
H         4.27699282377611    6.99001197837463    2.09608278332229
H         2.62519790756629    7.39584232114977    2.55201610819238
H         3.18796285455812    7.71805559606929    0.90691405589042
C         2.33809402064487    5.29629903392160    0.05573273013068
H         2.21626301401455    5.91361201878025   -0.80987879552105
C        -0.33157380428542    0.94245798533915    4.04586383241346
H        -0.14321747818066    0.61064159576463    3.02908632103093
H        -1.38199150197005    1.21093451009007    4.13632506593593
H        -0.14615030726357    0.12494696465508    4.74262132982549
C         0.39009565624739    2.94295556354688    5.50353170851663
H        -0.32285612347896    2.84300601768278    6.29532648141102
C         1.36881654100514    3.91476966383104    5.37099476336126
B         3.17570521577956    4.48441566741974    3.58569326957655
H         3.28018158174064    5.54255595808932    4.08153411248960
C         1.68267042558375    5.03340425046035    6.29154742710664
H         1.55498070583027    5.99128697288365    5.79196978196408
H         2.71216081496046    4.96739249270487    6.63687316386095
H         1.01900823465581    4.99383043450483    7.15024112143069
H         0.17305177437315    1.12508183501832    0.64347288164933
H         1.84583822482832   -0.49514238514228    3.13390311779056
H         4.36141116826108    1.74940081620754    0.43014995011395
H         1.24542933076579    0.04822653606107    0.34737104965313
H         4.09671200704148    0.34193550695589    1.00458404359439
H         2.95679344586907    0.08248491331358    4.06379931179681

