105
CSD_code = FASBAE | q = 0 | S = 0 | Stoichiometry = C52H44ClN3O2P2Pd | MND = 4
Pd        8.57212338643846   10.88924983864790    9.49403111186295
Cl       10.50245963558032   12.01719708499209    8.92073839466435
P         7.37176101617485   12.78845926751572    9.30112425753808
P         9.74478850973726    8.97030632239592    9.61426647266230
O         3.49117933506467    9.98198625077574   15.35478547790926
N         6.91933594727229    9.91162035618558   10.04417693369035
N         6.97209101905573    9.56815513940325    7.93959715417882
N         6.34425376254568    9.34815135042721    9.04915488616110
O         4.83820714139915    5.58598741141993    3.48616636997890
C        10.85516693573261    8.80206901188258    8.19230551404519
C         8.79121275308025    7.42295313730760    9.61411997432418
C         7.11682135273707   10.50149816368529   12.32236239551984
H         8.13312770537255   10.84314785049938   12.09783372584539
C         5.82233684571101    7.45040761353121    4.53172037728594
C         8.62995959524735    6.65427660545090    8.46758109646273
H         9.15549943498521    6.92086879671640    7.56081394134158
C         7.91964253778024   12.72599737032033    6.61446737612158
H         8.71965968205178   12.05933152678742    6.92810855980900
C         6.36191448107099    9.93236889518828   11.28524589207341
C         5.07562891985611    9.44903463389554   11.56058493539495
H         4.50796390195616    8.99668923078115   10.76264329108351
C         5.29380414799145   10.18068197043432   13.85704036246264
C         6.52888525443648    8.87342725836431    6.84052418353034
C         4.64274258866351   10.32100081259435   15.17521633199947
C         5.42416597185432    6.64217796323287    3.36189195620929
C         5.42373291237171    7.00956234951826    5.79951327090641
H         4.83978184913293    6.10264764391478    5.85924636439565
C         8.96697238099693   13.97658739896399   11.18080282693544
H         9.09443766760339   12.94883734167393   11.51662491228548
C         4.55938378383667    9.58373294268110   12.82497148237596
H         3.56263684184909    9.23573416701985   13.05201191291694
C         5.77402259904828    7.18515417367450    1.99436592708478
H         5.38295323423982    6.51382457311777    1.23405714895613
H         6.85431250964012    7.25556990615385    1.88618041017072
H         5.34259652907289    8.17443984234327    1.85964420322624
C         8.17289868636141   14.22840151061486   10.06544009892838
C        12.38884326488866    8.65530885688625    5.89528037675330
H        12.99308660896100    8.60032028183075    5.00163781494462
C         5.76214181860942    7.70259585651508    6.93487038629072
H         5.46270697234971    7.35626951688845    7.91287499113120
C         6.57381825717428    8.62567925221700    4.44060615035694
H         6.89357268011297    8.99783296166416    3.47945115125377
C         5.46841205121748   10.91170749849714   16.29567089023433
H         4.87156103267292   10.93323432753692   17.20389929359310
H         5.77188476522692   11.92548747977668   16.04345473274855
H         6.35910228311007   10.31065379255612   16.46448320008716
C         8.03034977517421   15.52754224652856    9.59704479215799
H         7.43227809612508   15.72568304057345    8.71908812375222
C         6.92498146605681    9.32166233039449    5.57350436387913
H         7.49662393651635   10.23515829948381    5.50344505016827
C         7.06765614981695   13.25752959023896    7.57764250828286
C         5.71677962583595   12.77214277999381   10.05443696455037
C        10.36057337846385    9.30268685735569    6.98977112625662
H         9.37160424953133    9.75856039335405    6.98184914605324
C        11.06832071916517    9.97157755163323   11.81035851144562
H        10.68050476700394   10.92403631925077   11.45455397294182
C         5.51095435272629   13.23436255448040   11.35020917991438
H         6.31758197093250   13.72427706921266   11.87923145900453
C         7.25233075065033    5.99310335536639   10.78496267564308
H         6.70880017638813    5.74310654902645   11.68431136139369
C        12.12253458020654    8.23913528184326    8.24666766882396
H        12.51631336399464    7.87195684470747    9.18398135969245
C        11.85951922894390    9.90811249935228   12.94298567512991
H        12.08582442353927   10.80770124030628   13.49634322322805
C        11.12483640670093    9.22307544325522    5.84246460630067
H        10.74394125387568    9.60987689423301    4.90850298566324
C        12.36276772636057    8.68853159015675   13.36569790158089
H        12.98023415219662    8.63654085179498   14.25029530046915
C         6.59266490192132   10.62282969287691   13.58645808660966
H         7.19282378528226   11.07135965699174   14.36279535289371
C        10.78213087748311    8.81384689861877   11.09372527410974
C         5.87264046985316   14.43988788902877    5.86552012392744
H         5.07307733207571   15.10378117357615    5.57029468552401
C         3.24968536555932   12.43648595008603   11.28167570092876
H         2.29314166927647   12.30061857871706   11.76280837300631
C         4.68009262330371   12.12967556907331    9.38159198477949
H         4.84659162243468   11.75102648706356    8.38094683283525
C         6.03773600178749   14.11474759695652    7.19955742982692
H         5.36263889102789   14.51207213730028    7.94618087304970
C        12.88542856451224    8.16948087723221    7.09330653049020
H        13.87531366321090    7.73860011993504    7.13214006102000
C         8.67354374075829   16.56490060048008   10.24947305926445
H         8.56891422460028   17.57511309651319    9.88147503591796
C         7.75140993693313   13.06092235223448    5.28280253294917
H         8.41743353458590   12.65687134380194    4.53401730215302
C         9.45520613985452   16.31228031113468   11.36454473680245
H         9.95874530688491   17.12622993716839   11.86487890294063
C         6.72858459384194   13.91704998401634    4.90867333876010
H         6.59425598672729   14.17711196226846    3.86899374955122
C         3.45117025605377   11.96998312006540    9.99230143895137
H         2.65090096643448   11.47218904592054    9.46497791324133
C         7.79031239856367    5.55439027898860    8.48648374892316
H         7.66548988942162    4.96208770098081    7.59223532922797
C         4.27927614322415   13.06917775475245   11.95728359226118
H         4.12344535490806   13.42807825048417   12.96391067923822
C        11.28474348022441    7.58904695194548   11.52380312739099
H        11.04697422260977    6.68720701500511   10.97527042631344
C         8.09217059333685    7.08927805421452   10.77251272134231
H         8.21048874365758    7.69829485907779   11.66112268449510
C         7.10047836364839    5.22438362661417    9.64101804827030
H         6.43808941249616    4.37167456502837    9.64862852930251
C        12.07450845622928    7.53206032108994   12.65746564557503
H        12.46672710685672    6.58243924470938   12.99127995717015
C         9.60369894062321   15.01561437748858   11.83095843922554
H        10.22396529915549   14.81821749931506   12.69305127799588

