33
CSD_code = FASBOQ | q = 0 | S = 0 | Stoichiometry = C14H14Cl2N2Pt | MND = 4
Pt       -0.71076591886190    1.58378650027439    1.66326767836505
Cl        0.85296812149049    0.89938737130772    3.12095442719688
Cl       -1.65425735958849   -0.45304805774906    1.63173852882703
N        -2.12822749588133    2.15431574071288    0.35499354132956
N         0.15632271296613    3.39713008806598    1.72051074892147
C        -2.30269224026085    1.45778019717127   -0.77213999970578
C        -3.35743519226422    1.68630474227103   -1.62902409093077
C        -4.30462232167951    2.67278443470410   -1.33493947587917
C        -4.10142761839534    3.39400672633154   -0.15245416588471
C        -3.01882036889495    3.10669108871500    0.64793322198860
C        -5.42218933974283    2.89342172908086   -2.23719596153544
C        -6.38321246772696    3.79994552677943   -2.09052941746389
C         0.67312352998558    3.97047967017815    0.63006658296931
C         1.40186356458739    5.13783542471587    0.67646450430661
C         1.62913742586189    5.77660405534960    1.90163620935207
C         1.07522651305796    5.16447142922697    3.03060835473294
C         0.36071882410773    3.99391705409972    2.89957427837716
C         2.40637679007933    7.00372305125919    1.94169810556282
C         2.70404792469271    7.70829960085018    3.02884232761777
H        -1.57352345465109    0.68489532367320   -0.97711484162277
H        -3.45331851128993    1.09115092553290   -2.52402085122468
H        -4.78760582556517    4.16819607779184    0.14889347737304
H        -2.85577934024040    3.65296459127694    1.56937960015413
H        -5.44171460014009    2.23630702631086   -3.09721508030529
H        -7.17783578797819    3.88969440027698   -2.81041136753587
H        -6.42199999176274    4.48197259389002   -1.25860853303101
H         0.49891777032997    3.46539313383912   -0.31249556938890
H         1.80356949995936    5.55246504976237   -0.23554645626718
H         1.20605626671742    5.59061909366357    4.01134806067459
H        -0.05783192616652    3.49784244290706    3.76551852216650
H         2.76204165922537    7.34323474704751    0.97698237509965
H         3.29074588981465    8.60813472784012    2.96547644676951
H         2.38414326821447    7.42239349283357    4.01590881899747

