10
CSD_code = FASCAD | q = -1 | S = 0 | Stoichiometry = C2H3Br3NPt(1-) | MND = 4
Pt        0.59601037073582    2.62417006978394    2.41753032795000
Br       -1.18003895565089    4.11661377910983    3.28166411778248
Br        2.32783731233595    0.99169172777989    1.72889783505581
Br        1.03908824037698    4.04051457313137    0.56617142189539
N         0.25561702166810    1.51660951778176    3.85988470965717
C         0.05738919319942    0.81211810782579    4.75262401517339
C        -0.18614148525950   -0.06783387675144    5.86126789917431
H        -1.21146486199574    0.05693440375490    6.21145626040381
H         0.50227608250772    0.16565352263637    6.67462696085920
H        -0.03307291791787   -1.10147182505242    5.54807645204844

