54
CSD_code = FASCEJ | q = 1 | S = 0 | Stoichiometry = C15H28BN6NiO3(1+) | MND = 6
B         3.68333899797189    2.10583947592367    8.97712409898197
H         4.70844070919562    2.07558069502111    9.54690595754289
H        -0.44577756576071    0.76642114439624    8.72656717526864
H        -1.60651923618859    3.71194229040161    7.14583239449547
H        -0.79425430120123    4.86602389904227    7.78286286297160
H         1.48352894375496    1.98253178544195    5.13201698160996
H         0.35254224541923    3.05693963071284    5.14224129878742
H        -0.78948122786533    0.88375789884597    7.22722116230167
Ni        1.00000173475542    2.61461335266571    7.62666073552596
O         0.67747007790678    2.26141033890950    5.57995048485122
O        -0.77302980628371    4.18996740749776    7.09860228859805
O        -0.68496353989199    1.39757071233061    8.03799698703922
N         1.32971253023966    2.89254675544256    9.43870204362145
N         2.18549424431713    0.63583072986778    7.63773662485610
N         2.52993063263148    2.52256487661058    9.91703135189247
N         3.32682500121143    0.75882905291480    8.34885058108616
N         3.69026090548215    3.17641130850910    7.86434623718514
N         2.55146121133682    3.61571459801228    7.30028162518491
C         4.23770209714195    4.74352200381666    6.41809537908666
H         4.79555383684694    5.43795703993465    5.82498572140128
C         1.27272449396728    3.05633991461433   11.64326462414777
H         0.92961309963620    3.23976451446715   12.64016862104983
C         0.99810925059136   -1.13286696954966    6.36984513434958
H         0.49161074749710   -0.31795376470136    5.85601782534590
H         0.27881018846111   -1.67019201161371    6.98922882090619
H         1.37550986815044   -1.83186550813574    5.62748094399041
C         3.24992908085674   -1.32334578073458    7.63750100760014
H         3.48597479892977   -2.34943763003072    7.44659367068471
C         6.14532687702442    3.59989597455980    7.72787057703949
H         6.41552806137634    2.55968726468888    7.56020542519617
H         6.30245887884266    3.82400835263717    8.78082835907740
H         6.79614485087040    4.23431546648707    7.13348469270243
C         2.85477298769846    4.57487578591568    6.41964965729742
C         0.54464532486357    3.22551914091190   10.46882324266228
C         3.99222986721783   -0.41371241499561    8.36683838709205
C         4.73373880601365    3.84074277643147    7.34484124133439
C         2.52623281491260    2.60930462264481   11.25543755020509
C         2.12561267459173   -0.61928537800731    7.19815712246071
C         1.85915854567209    5.33124160610585    5.61332542348651
H         0.84931628493651    5.13625184014691    5.96221262398041
H         1.94294015218812    5.07091066065429    4.55815329004045
H         2.05870254805538    6.39722944130268    5.69907055181451
C        -0.85544534808314    3.71388126598232   10.34681903279536
H        -1.38150194908101    3.19108890673120    9.55247064203454
H        -0.86523909163935    4.78610462462992   10.14980595019840
H        -1.37903433462074    3.54574634791553   11.28395619895426
C         5.28669101557772   -0.62129774100625    9.06241426656758
H         5.19345817244333   -0.41008564884725   10.12572917732366
H         6.05436253079494    0.03396880488415    8.65557284491121
H         5.60473381757805   -1.65201489415827    8.93677606326173
C         3.68225361886154    2.26136230576715   12.11546697172321
H         3.95814063254831    1.21748057958919   11.98193653409154
H         3.42198399108066    2.42595607592095   13.15684590428144
H         4.54656925116587    2.87310647250042   11.86709562910447

