67
CSD_code = FASGOY | q = 1 | S = 0 | Stoichiometry = C28H28BCl3N4RhS2(1+) | MND = 8
Rh        3.60878477065517   14.58251156529259    5.72043214212525
S         3.76273306856521   13.43138595217179    3.64984663124471
S         1.61777774843625   13.38726702810289    6.24203538453462
Cl        1.44496337367903   17.70821930875748    3.92195730588084
Cl        5.64151971486019    9.73098209923023   -1.68853128716042
Cl       -3.17657478773455    9.95811104442010    9.58015583577563
B         1.62892426685456   15.91957035005765    4.13944882050283
H         2.61929175415455   15.70024513651331    4.91595710121230
N         1.90311989409966   15.24224012377324    2.79656686412201
N         2.66890677847900   13.90129542394920    1.23514596467075
N         0.37322683986673   15.32509968331387    4.77763648496713
N        -0.98048863400665   14.04181357270723    5.93638349689331
C         5.23884348114250   15.95526759849534    6.22604099524746
C         5.80427642685041   14.67315456520268    5.99622338505124
C         5.18149665860270   13.75122673492162    6.91807742700815
C         4.33891268633137   14.50908533897844    7.81341198534405
C         4.32271012115777   15.85265440024386    7.35395250469057
C         5.62996368038449   17.23863906309118    5.57528700994590
H         6.08967804002204   17.06912744878517    4.60495054432735
H         6.35079409051525   17.75467586142766    6.21158111911635
H         4.77170424030914   17.89505931410381    5.44359559079102
C         6.89988328362333   14.31758239797509    5.05184281599617
H         6.65823904827476   13.41495722011322    4.49256162399407
H         7.80931769600515   14.12654019318587    5.62267841332170
H         7.09604334429111   15.12087749404879    4.34758694697893
C         5.55565539171061   12.31944261014705    7.09149195376618
H         6.41618795055807   12.25309183632873    7.75916098895310
H         5.82764039084340   11.86928800596066    6.13963074708754
H         4.73792094161787   11.75304944903847    7.53058803269139
C         3.68322484751817   13.95312601454283    9.02956341888958
H         4.45361920116983   13.66876566005997    9.74686409978154
H         3.10274068942682   13.06265057652941    8.79056855764707
H         3.02584450939640   14.68113673773369    9.49565157153471
C         3.66250193353106   17.01778664628784    8.01160047334687
H         2.81087553318145   16.70556531116407    8.61099073664729
H         3.32332497829338   17.74649698891197    7.27796201456370
H         4.38117042339157   17.51215664735114    8.66727353903952
C         2.73425275617175   14.20859017945297    2.55154091700274
C         1.31038610584435   15.58860144526082    1.60351897698813
H         0.61375596004876   16.39813268353326    1.54619035232719
C         1.78325836179831   14.77092845116247    0.64003665334012
H         1.55166840309934   14.71436768665975   -0.40263133183710
C         3.38889789844464   12.89476273249197    0.55285950376191
C         3.48979185114998   11.61271868660968    1.07946237192047
H         3.02089987000257   11.37418049480236    2.02037713237588
C         4.18593194764930   10.63927724781752    0.38943940369322
H         4.26670331521485    9.64263791422190    0.79180883787781
C         4.77609456104383   10.94459645069088   -0.83008394564111
C         4.67062578853616   12.22325774916479   -1.36228461044394
H         5.13138256632493   12.45266101822847   -2.30939552193855
C         3.97770800842471   13.19728499608048   -0.67028824939363
H         3.90548965303972   14.19570134702710   -1.07355226498325
C         0.31459217967762   14.27273342187115    5.61876890289475
C        -0.91468760654117   15.76180017610097    4.56926170911281
H        -1.11911429632251   16.60287244340112    3.94094061510845
C        -1.74968538937697   14.97927103291361    5.28429887755063
H        -2.81600580733928   14.99010158445840    5.36657172176228
C        -1.48767189958620   13.05367459564734    6.80941483111373
C        -1.03265892197049   11.74241177874196    6.74191276922294
H        -0.28234938262620   11.46508607703167    6.01935895531914
C        -1.55175384293201   10.78988883300360    7.59746627018992
H        -1.20423588790815    9.77079231881169    7.54880831568209
C        -2.53018162674526   11.14549328229343    8.51660073387665
C        -2.99181415721707   12.45402859305163    8.58175617552530
H        -3.75124839831795   12.72279591574386    9.29797341210786
C        -2.46997152195318   13.40675766170831    7.72895977314578
H        -2.81571486362677   14.42744779909406    7.78663747188032

