83
CSD_code = FASJUH | q = 0 | S = 0 | Stoichiometry = C24H36Br2N12NiO8 | MND = 6
Br        1.17187191143752    3.32308107348605    0.10678281268051
Ni        3.13957868321861    4.79400842653988   -0.00027037631833
O         1.28076216723849    7.65846540239845   -5.40603719206914
N         2.46165583869488    5.57157921958953   -1.53188523221429
C         0.86580242021419    6.47430107222904   -2.79797687107580
O         3.46031051635433    7.10148984080169   -5.28855473946875
N         1.14648447910796    5.89832112672191   -1.62020272673446
H         0.50871280656150    5.58004701805861   -0.89935646548282
C         2.08046457537226    6.54332055052569   -3.50327167596875
N        -0.34775683632607    6.85915236817857   -3.21835442372644
C         3.03093212387498    5.95730636100358   -2.65107119027353
H         4.07930589758874    5.83333135000076   -2.83894961221708
C         2.21453698243630    7.14925819363495   -4.81276127859716
C         3.67591469028185    7.70387178643182   -6.56395057016370
H         3.11121931005893    7.14457463906525   -7.31922880724703
H         3.28807476429904    8.72882638562669   -6.54172318892903
C         5.16415413750050    7.68015290467048   -6.85584052654940
H         5.70335654442249    8.22721359886808   -6.08724048606276
H         5.35469960015364    8.13916131577345   -7.82155491569812
H         5.52545964045406    6.65549616917428   -6.86975133250239
O        -0.18544766018196    9.20712906167262    4.08582087675614
N         2.03626771887915    6.39255407804399    1.25454455966089
C         1.97496896898663    8.33438686592168    2.35351173521272
O        -1.31981986100356    7.32935174081870    3.57301894277711
N         2.68969937635861    7.54462262034220    1.54190757504354
H         3.62015570263847    7.68146703904555    1.15313022751854
C         0.77098448327867    7.65229375268267    2.60884184715725
N         2.32839090943401    9.56970614824023    2.75809028952308
C         0.88654743825411    6.44826094073529    1.88916962970475
H         0.17100603619097    5.65046913246862    1.83793312424411
C        -0.26608576368661    8.15126164213815    3.48394517389414
C        -2.37523060480189    7.75091991540492    4.43377097870187
H        -2.72153206730158    8.74049471452446    4.11256197727953
H        -1.98447001569009    7.84556855788268    5.45390564221943
C        -3.48901817431350    6.72350290457946    4.36301433508719
H        -3.86189658907880    6.64490262567898    3.34531778388576
H        -4.30237545266816    7.02036285634624    5.01876035465694
H        -3.11839556815986    5.74972269235929    4.67157103139991
H        -1.12567460553929    6.91507139603339   -2.58687689146092
H         3.29632133904284    9.84065215114113    2.74101403355780
H        -0.35544155818754    7.36907330953974   -4.09115096612870
H         1.72517798434682    9.95892021524608    3.47062518779997
Br        5.10645411854199    6.26828509302684   -0.10819991312539
O         4.99609698585074    1.93050090456963    5.40678476765301
N         3.81670179082170    4.01576957795209    1.53131245189569
C         5.41193319868492    3.11290897994811    2.79810515964064
O         2.81687835474737    2.48868356611464    5.28874421710850
N         5.13165422812903    3.68823661853030    1.61996619566568
H         5.76972155650056    4.00567176656878    0.89903194522724
C         4.19717265828788    3.04496241644376    3.50329566072445
N         6.62530838549420    2.72772718336728    3.21871479950590
C         3.24707418119772    3.63104168194693    2.65066984645218
H         2.19879815240861    3.75595956970458    2.83849033379115
C         4.06264686801899    2.43978291839821    4.81306844888786
C         2.60080756547213    1.88708153646978    6.56441496032263
H         3.16573137645427    2.44643734855254    7.31947872041356
H         2.98808191811576    0.86190548913649    6.54269962931044
C         1.11254070904536    1.91173400542810    6.85605277228489
H         0.57314876143626    1.36448567256418    6.08771577427480
H         0.92165692026803    1.45339961849911    7.82201642651700
H         0.75176743526197    2.93658690742532    6.86931061961717
O         6.46566666712638    0.38141835566135   -4.08620905367853
N         4.24249000255319    3.19521186089099   -1.25533700387691
C         4.30445269534688    1.25357074196906   -2.35452326509915
O         7.59948002791734    2.25937264566480   -3.57272766904377
N         3.58933520301235    2.04309767783832   -1.54306889077264
H         2.65877516521413    1.90605710462399   -1.15454477257483
C         5.50838273025761    1.93591200924373   -2.60942090284884
N         3.95135482388827    0.01825131711890   -2.75936121623037
C         5.39240891852107    3.13981169673495   -1.88961704938507
H         6.10777491679346    3.93775352258406   -1.83814246718436
C         6.54583149130817    1.43727855480921   -3.48424631524437
C         8.65534927489040    1.83811295161929   -4.43306153516735
H         9.00156314368002    0.84847559761194   -4.11195285758898
H         8.26511913897455    1.74371321824598   -5.45342330116337
C         9.76901136727249    2.86561158816336   -4.36147375120898
H        10.14131582123646    2.94402503227960   -3.34354653889100
H        10.58275272647409    2.56896459935346   -5.01684423501520
H         9.39847262390139    3.83942846713354   -4.67002803865115
H         7.40320119091717    2.67117756188933    2.58725348968414
H         2.98346261821946   -0.25285523401023   -2.74264395129456
H         6.63279176770809    2.21825939017272    4.09175985166813
H         4.55486023018666   -0.37076267788558   -3.47174199230853

