73
CSD_code = FASSIC | q = 0 | S = 0 | Stoichiometry = C26H40Br2N4Pd | MND = 4
Pd       -0.00005472813037    0.00008087155842    0.00003920467356
Br       -1.95141094180487    0.00012353933356    1.49540190399979
N         0.89347403672004    2.81793965327510    0.59481878880057
C         0.56001921415337    4.12731490874989    0.38056076516826
H         1.13636625436919    4.93772578472541    0.77690710439584
C         1.97933838359346    2.34763829421241    1.43028727462762
H         2.71920194107219    3.14400542003943    1.51307776697464
H         2.44061760066379    1.48005322129643    0.93484237881553
C         0.00000284419985    2.00851637717445   -0.00000539612061
C         1.41870339867084    1.92741801928720    2.75897359955445
H         0.65322014280733    1.16036711900599    2.66595036028790
C         1.70093966575912    2.41424961287443    3.95940084978057
C         0.98305313224775    1.91517857564396    5.17761170300623
H         0.15978735592902    1.26010590740941    4.90910072990917
H         0.58933820703049    2.75485140793451    5.74860649436124
H         1.66997933032361    1.36895656409173    5.82342415480588
C         2.72264614038698    3.47443508629830    4.24562390435823
H         3.38159040674775    3.66176907372558    3.40357013188806
H         3.33229250060360    3.17715368292922    5.09731228110885
H         2.22185249652780    4.40673751396418    4.50879156901855
Br        1.95131080310960    0.00011913549201   -1.49531606889211
N        -0.89346106763920    2.81794429992044   -0.59483318448654
N         0.89340978106000   -2.81777188650075    0.59491955689011
N        -0.89339587917147   -2.81777648821389   -0.59493526823638
C        -0.56000252826883    4.12731879051662   -0.38056865038242
C         0.55997581247617   -4.12714703661185    0.38062289487126
C        -0.55995910190599   -4.12715096005054   -0.38063088508509
H        -1.13635057873305    4.93773412526314   -0.77690478558795
H         1.13628076497437   -4.93755693395515    0.77703084936869
H        -1.13626546548191   -4.93756544722949   -0.77702810690163
C        -1.97933492889927    2.34764515956298   -1.43029287925218
C         1.97916390169741   -2.34744971569966    1.43052257049716
C        -1.97916052040091   -2.34745702722985   -1.43052853717496
H        -2.71919896834428    3.14401214309261   -1.51308644496572
H         2.71902370151960   -3.14380946342385    1.51341085317564
H        -2.71902035989571   -3.14381731221522   -1.51341692794434
H        -2.44061594515734    1.48006047773186   -0.93484922408426
H         2.44048000775486   -1.47984605139427    0.93514206118363
H        -2.44047805385600   -1.47985220698301   -0.93515197112293
C         0.00000428757508   -2.00834629767386   -0.00000751922213
C        -1.41870195576305    1.92741416190536   -2.75897435365424
C         1.41834215941367   -1.92727413981235    2.75914633315912
C        -1.41834124395782   -1.92727067099128   -2.75914741706472
H        -0.65321886776904    1.16036443936533   -2.66594378396189
H         0.65290433446408   -1.16018831541184    2.66606804047088
H        -0.65290459831785   -1.16018514391170   -2.66606122175092
C        -1.70093780378932    2.41424146826509   -3.95940283669719
C         1.70035067974346   -2.41426411395277    3.95956835721101
C        -1.70034907576140   -2.41425576014162   -3.95957076437907
C        -0.98305162549155    1.91516807498734   -5.17761098071377
C         0.98222602157894   -1.91537531143410    5.17770862724372
C        -0.98222472199907   -1.91536463499495   -5.17770811538576
H        -0.15978653325766    1.26009667763319   -4.90909549112436
H         0.15893898156904   -1.26035394745852    4.90913194993592
H        -0.15893830696297   -1.26034480151588   -4.90912647261534
H        -0.58933684115315    2.75484145311171   -5.74860475959209
H         0.58850212653349   -2.75514797243566    5.74855411194359
H        -0.58850125406513   -2.75513832867035   -5.74855203312944
H        -1.66997936758230    1.36894705310508   -5.82342231520545
H         1.66899909498114   -1.36915231893043    5.82368191395938
H        -1.66899953609601   -1.36914275565504   -5.82368020680209
C        -2.72264360879926    3.47442511937217   -4.24563003777528
C         2.72194860744610   -3.47458372221399    4.24577937719076
C        -2.72194580440688   -3.47457358427282   -4.24578572863928
H        -3.38158805989998    3.66176002995577   -3.40357653279959
H         3.38192242272480   -3.66073329520343    3.40427516019330
H        -3.38191946789404   -3.66072306758894   -3.40428131526144
H        -3.33228788333527    3.17713987651831   -5.09731848369943
H         3.33048985311069   -3.17819752344752    5.09853892418933
H        -3.33048457800774   -3.17818408602682   -5.09854576113216
H        -2.22184994901440    4.40672671590361   -4.50880024919641
H         2.22103737262935   -4.40729537306238    4.50719324368936
H        -2.22103361515635   -4.40728414092086   -4.50720108067024

