73
CSD_code = FASVIF | q = 1 | S = 0 | Stoichiometry = C38H32AuP2(1+) | MND = 4
Au        0.39734944917149    3.74350058386319    4.15691129049890
P        -1.13343571094737    2.51647616186912    5.37856401906753
P        -1.06033160086027    5.06794043669318    2.94689081794536
C        -0.11820385361661    2.46199390209866    6.89911931049309
C         1.24903026149348    2.06622817962288    6.39575885643460
C         1.69687501136344    2.55024795093201    5.16202087454843
C         2.93241846138948    2.13628966446563    4.69014112953873
C         3.72648546665123    1.27783352739836    5.43544619775859
C         3.28818996697077    0.81957040296537    6.66393436486354
C         2.04798308549474    1.20773332156379    7.13822237327393
C        -1.40363038195649    0.77490254473526    5.00961683356288
C        -0.84125647922138    0.23358562321491    3.85897916691592
C        -0.99565570145524   -1.11430038474849    3.58913239574758
C        -1.70855574248701   -1.91656464644892    4.46521478173340
C        -2.26190804395202   -1.37826228194532    5.61795129804978
C        -2.10996493834522   -0.03383756192923    5.89834834380908
C        -2.71964539307226    3.28521155459316    5.76281141019870
C        -2.66084856423546    4.61804751543991    6.17050498715280
C        -3.82592225745336    5.32558284000173    6.38796200587856
C        -5.05233051603359    4.71031605092051    6.18432614140418
C        -5.11118435949677    3.39584692789792    5.75096364825017
C        -3.94880892803874    2.67959022799527    5.52655865533405
C        -0.05767407824811    5.04943834732538    1.41703587072949
C         1.33646633038873    5.35787643292884    1.90747826837584
C         1.76240429427218    4.84936235055891    3.13913910571052
C         3.02517674749208    5.18555658619656    3.60058780967512
C         3.86603089211360    5.99048455083107    2.84689026947358
C         3.44821380664842    6.47229594922096    1.62027912719298
C         2.18236478849296    6.16211624153311    1.15637557202082
C        -1.20806509154363    6.82500834101657    3.31167728312955
C        -0.60021829556757    7.33124064071843    4.45510527659326
C        -0.66069122931985    8.68753565620253    4.72029644260221
C        -1.32560440835594    9.53289397270330    3.84699604367879
C        -1.92438545364795    9.02898281887755    2.70143049720405
C        -1.86602230755631    7.67636055560550    2.42557014748307
C        -2.69895913681859    4.40909383447028    2.57853683068465
C        -2.73546059792467    3.07479621623300    2.17304753037034
C        -3.94817962817190    2.44889228975226    1.96602442497368
C        -5.12761928416473    3.14762932782283    2.17774448367975
C        -5.09226758525162    4.46360284174963    2.60908149709653
C        -3.88156802819972    5.09830299282712    2.82322722939102
H        -0.10963425471905    3.45996809594791    7.35425673058432
H        -0.51948218186186    1.74828271563560    7.62563902941176
H         3.28728883706900    2.48017236338336    3.73027209092969
H         4.68458612746028    0.96806657716142    5.04772949415062
H         3.90315624416128    0.15338263344613    7.24870616805471
H         1.69298610492005    0.84151511380231    8.09061516406205
H        -0.27305795768341    0.86971265602378    3.19119869280070
H        -0.55763048594790   -1.53941889977070    2.69899861175488
H        -1.82958230721004   -2.96771634897200    4.25345089136596
H        -2.80899906608695   -2.01031670358246    6.30090646222213
H        -2.53293346906554    0.39209592738663    6.79886568180787
H        -1.69615460982738    5.09090119078016    6.31798792133036
H        -3.78028603296599    6.35448013890853    6.71190621095064
H        -5.96399923578033    5.26110318884175    6.35726049694217
H        -6.06768087467341    2.92514882442514    5.58221020762115
H        -3.99428593987454    1.66024171535920    5.17064715049664
H        -0.11802964512866    4.05101436716318    0.96683018980690
H        -0.41805409966641    5.78456678572956    0.69044819050187
H         3.36501697709691    4.82198543192104    4.55864520083455
H         4.84461875938845    6.24029972013084    3.22660679941000
H         4.09950433243914    7.09692304206793    1.02899553529413
H         1.84394208740253    6.54767745764776    0.20558602120833
H        -0.07056858658808    6.66064971207844    5.12082690204307
H        -0.18695125336872    9.08546864168911    5.60469135415200
H        -1.37346482009864   10.59060408040339    4.05525060834824
H        -2.43372555856377    9.69397992696971    2.02055347251253
H        -2.32472342074110    7.27652735432387    1.53058795441824
H        -1.80685856603392    2.53632212375056    2.01911298395060
H        -3.97600896746216    1.41881149962458    1.64389377409995
H        -6.07647047307023    2.66095237349371    2.01267967649852
H        -6.01272113300699    4.99943061956109    2.78395036325330
H        -3.85398749652980    6.11886518686186    3.17748735663499

