141
CSD_code = FASYOQ | q = 0 | S = 0 | Stoichiometry = C53H80N7Y | MND = 6
Y        -2.65009326020019    1.07879494578573   33.36079915664961
N        -0.40495468990434    1.95921275764409   33.32008973267298
C         0.73711256025767    2.23503410284300   34.17035842744934
H         1.69117963227210    2.07651727083520   33.63791377088653
N        -1.64848692071545    2.16509672298829   31.48647607381869
C         0.68874863472561    3.68268632229582   34.68632612458114
H         0.71686710740931    4.37643963830705   33.84163346373519
H        -0.26109266769179    3.82410989860001   35.20626949550514
C         1.84090282763775    3.97152643584883   35.64201953962344
H         2.79293598152298    3.86026705428956   35.11519568810697
H         1.77387917929190    5.00236518432763   35.99712360106017
N         1.29991297652541    3.64180939438738   28.57017269461021
N        -4.54798864117487   -0.10230058723216   32.42207365625271
C         1.79795975921347    3.01025463300642   36.82412774569580
H         2.63159205001990    3.21101403817584   37.50124284383904
H         0.86689372455512    3.16266763912798   37.37286283440946
N        -2.66281338638986   -1.21902953230782   32.80600538205043
C         1.86035172365790    1.56896842173483   36.33085742100329
H         1.80642198100802    0.88334560350638   37.17918024798287
H         2.81549547140155    1.39952310491404   35.82573415033564
C         0.71384042558939    1.27848283227116   35.36643551731886
H         0.78697597024862    0.24941859410805   35.00816188559064
H        -0.24291774380637    1.39411666105196   35.88125613165651
N        -7.26081364987553   -3.51086597536130   31.41640771911436
C        -0.46387583059493    2.33613191567538   32.05148777885853
N        -3.68719356309808    3.60071851717975   34.38550357339268
C         0.71446380306760    2.90984368576102   31.27848591223717
H         0.39346242938416    3.82207906466929   30.77301919135368
H         1.51752135492341    3.17292473891968   31.96800764131166
C         1.21722541152112    1.91419777120146   30.26538869562534
C         1.37932885504556    0.58807011835835   30.63821200523413
H         1.17212157446315    0.30907567004543   31.66250551177896
C         1.76417173213575   -0.37472502330676   29.72152129980729
H         1.88150631013069   -1.40343216468665   30.02759224666192
C         1.98037804668989   -0.01364430644433   28.40474977241034
H         2.26570075947786   -0.75758958798803   27.67510222406782
C         1.84146501405746    1.30694890754786   28.01870315433646
H         2.02851450751546    1.57658364145941   26.99022990455004
C         1.47808914770316    2.28690339898713   28.93764256281078
C         2.34349708679906    4.53676993809623   29.02920954006508
H         2.64522329400645    4.27349956884647   30.03930172452824
H         1.96461483722760    5.56052064385466   29.02652317291393
H         3.23253366051108    4.49511039867987   28.38189158363386
C         0.93841077665294    3.90122446426230   27.19557972954259
H         0.16825942160508    3.19771180697629   26.88400602483354
H         1.78643570506577    3.83877086899827   26.49764946859793
H         0.53078092578038    4.91249024942650   27.13733441673665
C        -1.86816553713214    2.33020055376479   30.06368422203605
H        -0.99539167684336    2.74916599101780   29.55134168324918
C        -3.04971537964468    3.27808598087540   29.82491070116678
H        -3.92093321361726    2.88794103333408   30.35754700784283
H        -2.80729893886884    4.26178973119210   30.23561717701861
C        -3.35647984221638    3.40327038599313   28.33581616183996
H        -4.20731157946472    4.07286872396590   28.18703437937539
H        -2.49395492474783    3.84110057763834   27.82681445892908
C        -3.65822579173110    2.03676992351862   27.72974870357141
H        -3.85689667334755    2.13917570185609   26.65999988443370
H        -4.55446058678764    1.62366633123290   28.19822526807567
C        -2.48713650405436    1.08616240925222   27.95598626319477
H        -1.60403736736340    1.46605657538506   27.43516477457825
H        -2.71839763773071    0.10256184365164   27.54056111886964
C        -2.17293646894857    0.95961162992098   29.44250401136503
H        -3.02016247853469    0.51718391078776   29.97710312998800
H        -1.30715180596243    0.30848858378635   29.58423915185852
C        -5.96484355625231    0.03097923364269   32.15296869492241
H        -6.38161464859733   -0.85523545856894   31.65753054529237
C        -6.18837139322625    1.23831483199574   31.23487571772400
H        -5.66741027574849    1.06812851379698   30.28987216274299
H        -5.74468576398508    2.11870640303838   31.71243682601114
C        -7.67275288424347    1.47207622212377   30.97388423155744
H        -7.80302627425020    2.34758014400075   30.33268105231996
H        -8.08565577423314    0.60840283170076   30.44653187572447
C        -8.42952411227838    1.66832127752306   32.28367557726504
H        -9.49451959010288    1.80435811216455   32.08118412503471
H        -8.06643459155691    2.57004354829712   32.78287599809595
C        -8.22007749869391    0.46662014286868   33.19940102157105
H        -8.63757317465555   -0.42604836567866   32.72772966924344
H        -8.74621993390167    0.61992741980696   34.14442481288773
C        -6.73535251032564    0.24513577136272   33.46439382740923
H        -6.31503762418026    1.11780439180993   33.97011192100334
H        -6.59397262321037   -0.62278456789552   34.11055974577192
C        -3.92321266384098   -1.26771986050543   32.40332521897494
C        -4.61864735695582   -2.55424529461309   31.99136783072144
H        -5.16563667487853   -2.39063691559938   31.06185544146405
H        -3.87500013160273   -3.33069513893851   31.80602606273059
C        -5.57031225630825   -2.99538919597275   33.07317606564730
C        -5.17495454739105   -2.91083453772127   34.40092508940223
H        -4.18088885855880   -2.55136235686144   34.62801440186104
C        -6.04072412482795   -3.23275177192564   35.43120369167701
H        -5.71511623606755   -3.15200290317111   36.45754106861381
C        -7.32968237181390   -3.63684496244055   35.13553090875834
H        -8.02189039340200   -3.87737766200452   35.92948167431309
C        -7.73568602942750   -3.74193221202898   33.81799306776091
H        -8.74087228248882   -4.07229491919722   33.60393865692838
C        -6.86638237104643   -3.44048446768894   32.77266142191043
C        -6.68932069080180   -4.61412482390440   30.67006281012238
H        -5.65141674326645   -4.76232440705157   30.95421833095456
H        -6.73730568144138   -4.38811024395851   29.60307839422720
H        -7.23310790761290   -5.55400680513315   30.84906870784209
C        -8.66973062823495   -3.35365977015465   31.13847509096945
H        -9.06727468150806   -2.53157678718927   31.73082167934497
H        -9.26157475341720   -4.25910068418901   31.33838299150439
H        -8.78163259235940   -3.10745224714098   30.08066080065925
C        -1.76173988013142   -2.34984819421795   32.76969857787858
H        -2.26782663674650   -3.29379326355574   33.03523948111912
C        -1.12154701785870   -2.49602380333777   31.37979533287062
H        -0.64552387605906   -1.54561387257172   31.12592389761962
H        -1.89710536901544   -2.68377352332269   30.63333607334776
C        -0.09087285654051   -3.62047021989212   31.36232265353894
H        -0.58657127814269   -4.57235246020420   31.57206248933245
H         0.35810265906975   -3.69301906220002   30.36872693926565
C         0.99228091271216   -3.37726280627868   32.40899527485059
H         1.70843449506449   -4.20249659633068   32.40322322319386
H         1.53385326751796   -2.46066378236631   32.16566619579296
C         0.36942056364532   -3.23527879003320   33.79416314705357
H         1.14791125081058   -3.03467766889146   34.53380319480913
H        -0.11856586659520   -4.17361212286430   34.07054362158261
C        -0.65712075054030   -2.10689291421408   33.80331696131472
H        -0.17375868275836   -1.15529621050405   33.55570562100183
H        -1.10791169649280   -2.00964349211444   34.79565822865947
C        -3.31596275433661    1.06896792017208   35.63328248673756
H        -4.41260126905922    1.07779497659279   35.57615013013683
H        -3.03817573372844    0.20625213071162   36.25191498701751
C        -2.83474785689725    2.30482386554096   36.27506609626202
C        -2.13176951835149    2.27227378376009   37.48560243981269
H        -1.94820070222449    1.31312876053087   37.95188319837212
C        -1.67264958407043    3.42188924070743   38.09722043186186
H        -1.14531170783660    3.35892067098478   39.03893025108248
C        -1.90406323144437    4.65506639095539   37.51312682344450
H        -1.55963107295907    5.56193906863330   37.98747361627899
C        -2.57896955296686    4.71881158024433   36.30367182561444
H        -2.73784454079529    5.68665314705584   35.85090185957235
C        -3.03623085330432    3.57015460732140   35.67924219196977
C        -5.12779094396233    3.77552199298637   34.55649578403487
H        -5.36800046201222    4.77612062413988   34.94666597153416
H        -5.51091768684948    3.03912396354970   35.26040920934344
H        -5.63024545162035    3.64932756152333   33.59601518436250
C        -3.17659399642142    4.64412536463448   33.49839858745926
H        -3.48236821394685    5.65405945602091   33.80773048532157
H        -3.56590447632394    4.46767176486180   32.49465832358091
H        -2.08922532085345    4.59225009220204   33.46596345552393

