27
CSD_code = FASZUU | q = 0 | S = 0 | Stoichiometry = C12H12MoO2 | MND = 10
Mo        3.37335308928452    0.75237797877276    0.05851529939936
C         3.05107034854252    0.59819441130120   -2.20328865786710
C         2.10292566596019    1.54484210160274   -1.71893065852374
C         2.81057519821176    2.64310184235172   -1.20934017290057
C         4.19479152939580    2.40673240289256   -1.39450522341343
C         4.34610121139191    1.16124006656805   -2.02244976875717
C         4.78737193540003    1.32889163217415    1.80724935261270
C         3.59573907017497    2.08730485378002    1.80426167370192
C         2.40008770883796    1.40473304018703    2.13653063153290
C         1.11579835165626    2.06954940417124    2.03469870337469
C        -0.01009203050213    1.59813559395585    2.56297796415162
C         2.11420137605480   -0.53899851036725    0.72453158758032
C         4.45488990712319   -0.75589564730496    0.54548011183013
O         1.36415062911126   -1.31217694133848    1.12659508745316
O         5.10376123052571   -1.65657014092453    0.84245770956892
H         2.82113179616560   -0.25649344774178   -2.83090791953796
H         1.03065979709659    1.48172175235714   -1.84830645515174
H         2.37394205910094    3.57908367088914   -0.88359894957551
H         4.98439583705850    3.12809704054231   -1.22330209708152
H         5.26837175996930    0.75253268243398   -2.41458749622351
H         5.70816128523471    1.85051783312577    1.55960176042893
H         4.92026907036947    0.58976063036072    2.59308530589937
H         3.59446675385058    3.15564651545260    1.58852920436441
H         2.45839172448873    0.62985194516841    2.90278378679722
H         1.09654564084405    2.99898884258686    1.47381538620273
H        -0.95120922011030    2.10712811272772    2.44961794375548
H        -0.02465172523670    0.67330233427495    3.11498589037792

