65
CSD_code = FASZAC | q = 0 | S = 0 | Stoichiometry = C22H26N4O12Zn | MND = 6
Zn        2.14973288211370    5.07327173256411    4.66776372226957
C         3.79876738410831    1.38246813217320    6.57126101703482
C         4.02317223774208    1.51493303104723    8.83255705605859
C         4.33798932085850    1.84441384371408   10.13410775256227
C         4.09953601714932    0.89336032755740   11.12120546147115
C         3.56656910074967   -0.34512885159374   10.81556487958413
C         3.24756580714318   -0.68163872845747    9.50258359246498
C         3.48152326616275    0.25779400007877    8.52742826747434
C         4.86603554333218    3.44456255160751    7.46410254073670
C         4.16428819094045    4.44291141142029    6.54000244321159
C         3.69871856945434   -0.92957228408241    6.38103042364976
C         4.96734326492488   -0.39084722938237    5.70445481462274
H         3.16628169076546    1.87294491488756    5.81883210822960
H         4.76288578621612    2.80258852279079   10.38900757224779
H         4.34114562213953    1.13123748411894   12.14596039352652
H         3.39624654281681   -1.06463531800825   11.60125858765116
H         2.83211651530120   -1.64760595816118    9.26129469710262
H        -0.30246924617333    4.71588829010323    4.97258585210624
H         2.20420297501603    2.98725480272042    3.01879698463368
H         5.02115845295425    3.92644469555173    8.43073941506326
H         3.91927185817655   -1.79192793663747    7.00917836673168
H         0.35421231617345    4.07742112017096    6.23127302442056
H         0.76604635763890    3.48507365306053    3.39483022522366
H         5.85223066286287    3.23401751842538    7.02674737312886
H         2.97897110944749   -1.21988431267255    5.60814658618679
N         4.09960228466646    2.24727565911915    7.65811408290262
N         3.20964521976849    0.19607444664169    7.14435038978533
O         3.00500668271482    4.15507855609036    6.14773835650073
O         4.77361566708233    5.47866075597917    6.22233741625923
O         5.79847477820218   -1.02325566494539    5.12581216770257
O         4.99635367419321    0.93343260329806    5.85107702613789
O         0.30637217458067    4.89025650133445    5.71672330215710
O         1.63865470083345    3.20421888572605    3.76565537592205
C         0.50322374020643    8.76395518651893    2.76212885520644
C         0.27904061261282    8.63343086738654    0.50079663150505
C        -0.03561754373543    8.30490195347099   -0.80102479562895
C         0.20172769731658    9.25717496691500   -1.78720709112091
C         0.73350452021796   10.49588882791283   -1.48038942100179
C         1.05241836034007   10.83138810755129   -0.16713864757216
C         0.81952527055301    9.89076269367902    0.80713289255269
C        -0.56377575648871    6.70279808827275    1.86755111623379
C         0.13592693362929    5.70502131741770    2.79365806905199
C         0.60156393102622   11.07569002183769    2.95483283658863
C        -0.66769083267729   10.53561033164982    3.62919484455920
H         1.13576822892916    8.27353396705896    3.51451698314120
H        -0.45959305138061    7.34655159823617   -1.05677770252633
H        -0.03981526670583    9.02010271244630   -2.81216179780554
H         0.90293904853802   11.21636724385062   -2.26538869721075
H         1.46693727331067   11.79753291396822    0.07502094602271
H         4.60267725050281    5.43426445893101    4.35949804138671
H         2.09337622604883    7.15996030019226    6.31528832923679
H        -0.71692968911253    6.22040213433095    0.90083551954464
H         0.38171142727903   11.93909148323530    2.32793647655257
H         3.94284826361330    6.06792888758150    3.09979692108059
H         3.53185861120314    6.66218891407578    5.93975728525590
H        -1.55085757123342    6.91389166171503    2.30265709671007
H         1.32051597968013   11.36458504350791    3.72899749799324
N         0.20368859820331    7.89963100608902    1.67448536025396
N         1.09155955139707    9.95128159779826    2.19024981462669
O         1.29583293090184    5.99113664729009    3.18518739381501
O        -0.47532895834571    4.67102228252062    3.11340429445583
O        -1.50003307386204   11.16699032687274    4.20717583323763
O        -0.69522329736326    9.21136815150306    3.48197817732801
O         3.99297778316710    5.25685378478935    3.61698863990160
O         2.65907539218628    6.94260536514843    5.56859702186095

