48
CSD_code = FATCAE | q = 0 | S = 0 | Stoichiometry = C18H27O2Re | MND = 8
Re        2.57987848964013   12.85916292194626   10.14143031807695
O         1.17385730876222   12.05440770291858   10.54238365853613
O         1.66367887033925   16.10739538427677    9.32063625961358
C         1.76824334141509   13.84400918424131    8.46104896162525
C         1.54455796531487   15.16105491039900    8.34558149206494
C         1.81541214950600   15.81906599043760   10.64573142872421
C         2.08918999508626   14.62468259353148   11.18969096501583
C         1.49512844523399   12.97781637598481    7.25527840093185
H         1.65299341760201   11.92875209143618    7.48855761632597
H         2.13683235336423   13.25123140211037    6.41783210762538
H         0.45970703231206   13.09403552323816    6.93861549389813
C         1.10353743360010   15.81684684364308    7.06146823592021
H         1.78859013754945   15.58200065794826    6.24958773291536
H         1.06960689524439   16.89326745234511    7.20415155531558
H         0.11255087448497   15.46512925823000    6.78163744211874
C         1.62156163129769   17.07480982437123   11.45731112874669
H         2.48341092528615   17.26217542593190   12.09405426881380
H         0.74379138700199   16.97984416062037   12.09311495243096
H         1.48217482057784   17.91589759841092   10.78427083706827
C         2.13042418588832   14.53198044580602   12.69589469612193
H         2.30995454256652   13.50945943164874   13.01628635141223
H         1.17578479051038   14.84705246161577   13.11530673899945
H         2.90901254867967   15.17140701430826   13.11193709599120
C         5.00521539635497   14.09349629623650   10.21488167584122
C         4.81529260865076   12.95216074157794   11.05929813770530
C         4.56620328010985   11.81868965253897   10.21339301528586
C         4.54850508976904   12.28731330774089    8.85603942331909
C         4.84591571374426   13.68822490520836    8.87399159284133
C         5.38866838022675   15.47376044837655   10.63879211734467
H         4.72944458852632   16.21301974743100   10.18398472734913
H         6.40979021720530   15.69140079601095   10.31899641291104
H         5.33695009203094   15.58446674682226   11.71883295948842
C         5.19216877351463   12.86502976794347   12.50676146024781
H         4.60530177552683   12.10874572117329   13.02535273092345
H         5.04626646825798   13.81593923671210   13.01358029318524
H         6.24624029275957   12.59095345893632   12.59579863079055
C         4.67712364214423   10.38129483924455   10.63433156718839
H         4.31592589212788   10.23695877385261   11.65176357729449
H         5.72285865852371   10.06508610293979   10.59919076221413
H         4.10592463330216    9.72891706186237    9.97505359622759
C         4.59768646424254   11.39803180772811    7.65100915907228
H         3.96616723355406   10.52061568879645    7.78021199313141
H         5.62211677114076   11.05335022195830    7.49003959900354
H         4.27224218895561   11.92210993488051    6.75554590827819
C         5.03820036178089   14.58503709131145    7.69475777180527
H         4.84480379973607   14.06042644952217    6.76294082920251
H         6.06398844058951   14.95694284732183    7.67466951112472
H         4.37101969596262   15.44544369847300    7.75167480993044

