49
CSD_code = FATCUA | q = 0 | S = 0 | Stoichiometry = C20H20Br4N2O2Zn | MND = 4
Zn        5.95360455293509   12.36978401584874    4.68602403458569
Br        3.10876956299057   12.42630777407421    8.40387301766320
Br        2.36034796587845   18.01649475011076    7.68471517116595
Br        6.35800584570310    5.68842683922913    1.69168447001901
Br        3.73571386027443   10.67539844544138    0.92908748601969
N         6.15470173643890   14.22439848134811    4.02204848886543
N         7.19129538096874   10.98154380170273    5.36409392945481
O         4.81708818207892   12.78291080208183    6.08114058667423
O         5.29695338188595   11.37701738578346    3.27657191562906
C         4.61878699095792   15.13990740854284    5.66739402031764
C         4.33059312868164   13.93050857438374    6.36454336701293
C         3.44062013581363   14.03776033421318    7.47069401154218
C         2.86136374626724   15.21127267445523    7.86694033196384
H         2.19111276051709   15.24091929631454    8.71226638041577
C         3.15860601848127   16.37326050605362    7.15014800308362
C         4.01435189406463   16.34276783850874    6.08097272626297
H         4.23508533897605   17.25209407283960    5.54156775502959
C         5.48237244498011   15.19227942672579    4.53477323519568
H         5.56382525289998   16.18056915518033    4.06957034849949
C         6.89201893577371   14.49012424227774    2.79900580606516
H         7.16180183837254   15.55699622117050    2.76220568578802
C         8.16204947837398   13.65100833819868    2.77169644471700
H         8.80379815017888   13.90188898167187    3.61329866446932
H         8.70959036999307   13.83639729578448    1.85127665945552
H         7.90931636648837   12.59284739793879    2.81779346239650
C         5.99219137122338   14.16251493602942    1.60638400269349
H         6.53826920599286   14.29991901165142    0.67722417802554
H         5.11820745209712   14.80955175164068    1.59961755413815
H         5.65239825178175   13.13269831765346    1.66957095106517
C         6.49956267455914    9.34386441338922    3.70773602711125
C         5.57241072029075   10.16035874938122    2.99697298891410
C         4.92712042630612    9.55626458099159    1.88081979234384
C         5.14215900258611    8.26403061401274    1.48866540017226
H         4.62613150835254    7.85024794186257    0.63592075288895
C         6.04792490057954    7.49084051034065    2.21956573489259
C         6.71195144901014    8.01330665121001    3.29780308259871
H         7.41224264241895    7.40151648355084    3.84731231219559
C         7.21716650891106    9.80388893644706    4.85003242910692
H         7.85506973432194    9.04859151058415    5.32166472557246
C         7.93040760222517   11.19499186392955    6.59626093090947
H         8.77539942444830   10.49037075305050    6.63930860145265
C         8.46406855624829   12.62032741365647    6.63526378810693
H         9.14122639852146   12.79821699068784    5.80281086287408
H         9.00395309429745   12.78922779710792    7.56331947738536
H         7.63788728095335   13.32757167901556    6.58133714887060
C         6.99704216692856   10.92592214470960    7.77797540346192
H         6.11908992517656   11.56209310660916    7.71011876823103
H         7.51119490300106   11.12870069463797    8.71338694585086
H         6.66765147979975    9.88949908797520    7.77544213884269

