70
CSD_code = FATCAG | q = 0 | S = 0 | Stoichiometry = C36H24CoN9 | MND = 6
Co        3.58506751679208    2.36840017146953    1.79276002147769
C        -0.85888234556025    3.62676660315466    4.15657198089001
H        -1.15161007279720    3.48184814725444    5.18667442897818
C         1.42595255796356   -1.07043204199596    0.46747169598726
H         0.40934926647973   -1.33313373902739    0.22383645603731
C         2.47042630873647    3.80695239555114   -1.88104362105070
H         1.54839108411964    4.27236577543005   -2.18808342111511
C         2.45724557174095   -2.00003441176749    0.35528743392066
H         2.25403580495254   -3.00538201747127    0.01907403860457
N         5.29359061790041    1.53520992507323    1.82562027072374
N         0.36676409236897    4.12222142420657    0.27924432487135
C         3.86862134574009    2.88871801376096    5.84916141515573
H         4.19799518941067    3.74892362740469    6.40799403004991
N         3.45165904775054    1.96122653381518    3.66818142318698
N         4.22194178812473    4.04343073255662    2.36919290216063
N         4.65972861040227    5.30893561066822    4.20192593133981
N         6.39023066480710   -0.43051321255604    1.51562781029802
N         2.94927655332153    0.59852053299858    1.21964876307844
N         1.84761296491416    3.12983679207606    1.68743346863728
N         3.71021565502482    2.82503702721354   -0.06970261537744
C         6.60231941527914    1.75553015775326    2.11951348969187
C         7.30797507743817    2.88762245991193    2.52596594916481
H         6.81516623219215    3.83502657967861    2.67202806676263
C        -0.18984385053032    4.04045171822521    1.51468192868133
C         4.25322028552972    4.14284241136290    3.73016173144979
C         9.32550060532060    1.53397357242162    2.54497662481746
H        10.39011669367879    1.48937348442880    2.72354295859919
C         1.56557707438771    3.58336913589866    0.43169523924163
C         3.85327605171189    2.98003391116216    4.45550160405885
C         5.23508823465428    0.21623238698618    1.47696515780584
C         4.63850471965546    5.25816818872851    1.92247843243134
C         3.95239910118941   -0.29807835098589    1.11190810032807
C         3.05678316062032    0.66307980690267    5.62643145755422
H         2.73177009578775   -0.27481180166248    6.04711058966071
C         2.59168692768598    3.40837303187710   -0.54837035748549
C         4.91204667361180    6.04439322873609    3.08974126853156
C         8.66018548778155    2.75491616219825    2.73342825297401
H         9.23115242871416    3.61522510188774    3.05095895878499
C         0.73591920368596    3.41858023657957    2.41434307606901
C         4.68119367449035    2.99767696003255   -2.23677366370034
H         5.53707634694665    2.82203599523654   -2.86807854132003
C        -1.44764508052543    4.44987074610193    1.95747815424165
H        -2.13534474649112    4.91912977714109    1.27180525511425
C         3.46593882922459    1.71463486187184    6.44296367633263
H         3.46430197290501    1.60702945668554    7.51683899764441
C         3.06559945527766    0.83019779687107    4.25570534469693
H         2.74166903571825    0.02171712339799    3.61545691961130
C         7.28109367652974    0.50994537572502    1.92091044039376
C         3.73601153374358   -1.61021541075706    0.68324649143558
H         4.58547486812879   -2.27053788641323    0.62512905129633
C         8.65568559401560    0.40655701470401    2.13912240322864
H         9.15797801253644   -0.53599346545355    1.98751731750149
C         5.37396376725269    7.35583291560285    2.97719388094037
H         5.57557383482456    7.93357238498803    3.86529811000262
C         1.71695005605387    0.20822405258672    0.90135108171072
H         0.92887031792037    0.94088498071335    1.00365473241436
C         5.55731279711114    7.86624907090811    1.71609465668973
H         5.91317585190345    8.87860657289518    1.59210470288071
C        -1.76412634047435    4.23655752478791    3.27652291115071
H        -2.72869183859715    4.54395859317471    3.65356352452488
C         4.72938059352959    2.63314989661734   -0.90492674512450
H         5.62334977674863    2.18279649661831   -0.49823311955381
C         4.83773944447099    5.80284000046889    0.65431486846854
H         4.64592804794377    5.23601108217225   -0.24286272639983
C         3.52839312280241    3.59735043918751   -2.73693553721799
H         3.47079790368672    3.89607558437014   -3.77254216843992
C         5.29231633488226    7.09823761294034    0.57374545645473
H         5.45217274288989    7.54026855225135   -0.39930484801559
C         0.38696193913845    3.21178820787607    3.74824443385651
H         1.06814263483430    2.74724837479841    4.44465567220575

