69
CSD_code = FATFEM | q = 0 | S = 0 | Stoichiometry = C34H26MoN8 | MND = 6
Mo        2.34468022200463   15.57465279233514   12.07084220571847
C         0.31810382716198   15.73607470790671   10.03229274202506
N         3.83806758948017   14.69532379641191   11.02660647473190
C         5.05023889340929   15.35070884647169   11.11595991271338
N         1.55450110427117   17.05767384327137   13.06784803716059
N         0.77591000429986   14.51795305143962   11.77575784563663
N         5.06640855236012   16.49346050830205   11.76092595779199
N        -0.11081440103834   14.75495554939071   10.78856434731187
N         1.54124517647705   16.29745142992139   10.34928130625119
N         3.84626591170266   16.74998603302242   12.26662756448921
N         2.57049218210585   14.16282611235446   13.41667372333455
C         1.53940223600994   13.25977738870181   13.55556350100369
C         3.83063317326337   13.87782979332680   13.93857309505165
C         0.48641807903771   13.47784033898194   12.63775297359830
C         2.35127931236234   18.14511918710849   13.34456920826117
C         1.42057487828521   12.24537269069581   14.49976079675681
H         2.21010839682578   12.08050750022349   15.21901238239856
C         0.16623387047883   17.13801834736668   13.19301294883360
C         3.68367544379117   17.97034065061055   12.90496720971463
C         6.22323926508193   14.80358181002256   10.53055086692070
H         7.13814192050034   15.36291214085801   10.63255276472212
C         1.99330034311038   17.30355721050772    9.56988487932471
H         2.96095347079322   17.71536987213900    9.84505586738806
C        -0.65681985213965   12.69270190314474   12.66415337585793
H        -1.44221309788631   12.88583479734557   11.95062072998546
C         5.82006207967710   14.63088882744276   15.06770232461153
H         6.34805286733561   15.39852096120016   15.61342811758316
C        -2.61193406094786   17.12409903911038   13.28250160453717
H        -3.69098565135924   17.11052827492853   13.30664596932696
C         6.44402745120899   13.42581118148288   14.78593881436218
H         7.46051103083966   13.25393025517231   15.10579315547248
C         1.30112272687018   17.79533381514340    8.50282884964338
H         1.70656456738600   18.60620220284283    7.92010222126807
C        -0.43695205701293   16.20931171838626    8.92450050880234
H        -1.38211255908257   15.73145181233325    8.72811290720420
C         4.45911688166014   12.65734822484289   13.67543636026059
H         3.92608576317726   11.89907117280363   13.11738055633699
C         0.27202363496113   11.46874347001872   14.51821332353254
H         0.17901479760832   10.68439394933352   15.25476116371661
C        -0.75601342363655   11.68745912170369   13.61295759204295
H        -1.64186895384423   11.07162904993887   13.64891919201693
C         4.52288381344037   14.85840730848928   14.65175363545217
H         4.02475644046456   15.79659710804763   14.87533433495822
C         0.04751145431617   17.23029943723630    8.17197955357492
H        -0.50668529065398   17.61406847149061    7.32895621523627
C        -0.50799718302952   16.22334802093006   14.00308427752049
H         0.06815285998007   15.52056578468857   14.59493849132796
C         3.80607352102131   13.51913395060031   10.36417286852766
H         2.83174827953924   13.03897186297930   10.30875304815116
C         6.15279009128696   13.61044464235307    9.88554424018946
H         7.02903097391906   13.16412512170774    9.44081118365045
C        -1.94742933010639   18.04534206728729   12.48967911982897
H        -2.50787875547542   18.75138848739759   11.89447949204485
C         4.90706160158659   12.94740259055867    9.79818036344126
H         4.82703450513197   12.00003534309653    9.29050085713286
C        -1.88867225629239   16.21711055581441   14.04053229417227
H        -2.40210992609252   15.49699361813142   14.66031826434791
C        -0.56643402473451   18.06159137805745   12.44530095021999
H        -0.03966667166889   18.76497280178514   11.81274910473252
C         5.75809083224223   12.44190272600313   14.09300764159423
H         6.23993109699696   11.50126840972890   13.86952148306938
C         4.63812965316227   18.95027050373038   13.11826539837507
H         5.64702640469278   18.78749353045403   12.77272798933228
C         4.26645637506179   20.11483861783061   13.77696612444403
H         5.00101808179936   20.88597432909937   13.95243703108767
C         1.99824916471746   19.31544759503225   14.00476618004967
H         0.98603598817088   19.45497904508468   14.35636476624445
C         2.96336633416433   20.29192119877674   14.21210981300606
H         2.68868436976482   21.20155211508333   14.72523190058107

