49
CSD_code = FATJUG | q = 0 | S = 0 | Stoichiometry = C18H20BClN6S2Zn | MND = 4
Zn       -9.13375621107897    7.42158777436029   15.06399898724461
S       -11.46068216588140    7.82879776298095   14.43886453384604
S        -7.11981564386271    8.25875527839483   14.33954040868810
N       -11.96222870801104    5.56484556866467   15.96379208438515
N       -13.36231887033073    5.97846168479927   14.32289736803066
N       -10.46635173380650    6.86428890433499   17.58206627202018
N        -9.57457162821792    7.70783785346821   17.05276072449169
N        -9.59239071952029    4.86503914973234   16.30569023469749
N        -9.05550088606558    5.37409201125624   15.18816041903665
Cl       -3.69631208976515    3.65267046981172   16.83871276345566
B       -10.80320664209206    5.49012338726026   17.00407959849455
H       -11.15542069155306    4.78139288927627   17.88691890043239
C       -15.34601884755224    7.20876915687496   13.62846002954731
H       -15.19952674323414    7.90548926763993   14.44994471128599
H       -16.02850084340314    6.42497887984437   13.94990609486314
H       -15.79771539925989    7.74351699333280   12.79820986447234
C       -14.16256286411596    5.63079628978774   12.04254469372231
H       -13.20284734828545    5.18368368275204   11.79503745534151
H       -14.53589504844433    6.15203867306305   11.16584303545018
H       -14.86376387265311    4.83895955608577   12.29524881731294
C       -14.00653336193432    6.61978871096257   13.19397173820143
H       -13.33721939933216    7.43158373352994   12.89067522380800
C       -13.80092410551414    4.84678421547749   14.95531578349704
H       -14.67930426744330    4.31993623215766   14.64882020339592
C       -12.93394322066657    4.59466669165090   15.95873986088261
H       -12.92613896800225    3.80266614988348   16.67668722270883
C       -12.23520628930282    6.40313305587368   14.94556345146409
C       -10.95721927425575    7.38616150137262   18.71383312844586
H       -11.68579069139515    6.85996790472602   19.29652524872614
C       -10.36571959683141    8.61447187288560   18.92397415185652
H       -10.53323416880033    9.29418903405900   19.73316072053126
C        -9.50203192686461    8.77023435195316   17.84481864501577
H        -8.83891365998471    9.58024936245980   17.60934879787295
C        -9.01922798309172    3.68703992525350   16.57916509872233
H        -9.31167768057253    3.11318753781906   17.43485621463428
C        -8.07230385502308    3.42266713354156   15.61134439831202
H        -7.42852580790656    2.57172574766181   15.53618680229342
C        -8.13566451521740    4.51806887160332   14.75838892968300
H        -7.57248217826040    4.72012715268110   13.86844971976128
C        -6.14692562148836    6.99359625569044   15.08085264459343
C        -5.15757415985229    6.37241725054106   14.32295600790428
H        -5.00331486370596    6.69010239032977   13.30335757551946
C        -4.39559006120152    5.35402309529611   14.86085570498182
H        -3.63820518835287    4.86509897482906   14.26794904074176
C        -4.61891085638865    4.95593171583941   16.16916783258329
C        -5.57232306906756    5.58858194837068   16.95008100772699
H        -5.72305805304365    5.28417190763082   17.97435647479750
C        -6.32585913219247    6.61090041414040   16.40722392468067
H        -7.05769108718313    7.11970162816819   17.01849744984875

