41
CSD_code = FATKAN | q = 0 | S = 0 | Stoichiometry = C13H18BClN6SZn | MND = 4
Zn        8.37830236222893   10.58828266659798    1.61012286845026
S        10.64461930149524    9.72472422741437    1.54761680308490
Cl        7.41044671900141   11.72946313232264    0.08308869319579
N         8.10071564824752   10.43721665367702    4.45591930102835
N         7.59350714668499    8.77982327061462    2.05716655350310
N        10.23255652443840    9.14645278707121    4.19677646344786
N         8.13744331044261   11.33598327229156    3.46494872770940
C        11.05812326865625    9.44668223296209    3.17443139415755
C        11.01522582907388    8.97047188071998    5.30795567639381
H        10.58806304639426    8.73015516881503    6.25788020765335
N         8.03998747040610    8.24154606218799    3.19714357450968
N        12.34265453474151    9.44423631215235    3.62533813605688
C        13.56508448995820    9.70842337787530    2.85086689152316
C        12.30695664603696    9.14772557823422    4.96427681098516
H        13.17841048965658    9.08146575229538    5.57662225359739
C         7.76606043884844    6.93027920774774    3.20693241142034
H         8.03862158064327    6.31291705531633    4.03871624406864
B         8.68308102053928    9.02532862220647    4.34199841663870
C         7.56805542344828   11.00089655093020    5.54675222986989
H         7.45016998096574   10.44817820840500    6.45650202064277
C         7.04028662138596    7.81160907416213    1.33965052583732
H         6.61156692884125    8.02458408412822    0.37974166631296
C         7.61691143212918   12.46759190594997    3.92188805090805
H         7.53958494566560   13.32674965401367    3.28457394771130
C        14.78847551398145    9.62707756917559    3.76705967629688
H        14.74184410252639   10.36898810843917    4.56086858806700
H        15.67575894780588    9.83021942185312    3.17341171565094
H        14.89771963048264    8.63511345144707    4.19914032106269
C        13.49421982160273   11.11842696648833    2.25940689902935
H        13.36271489942860   11.85316693831295    3.05102534392476
H        12.66941214851045   11.20448755512859    1.56022382020015
H        14.41697432100384   11.33769644340559    1.73049058067535
C         7.12374593395647    6.60665128897443    2.03022993725585
H         6.76999659530969    5.64615920614281    1.71836431559081
C         7.24025314652659   12.30822722070793    5.25104299869523
H         6.79319247349191   13.03441220983406    5.89729376933075
C        13.70521027630548    8.64796301771401    1.75618591527724
H        12.87476690433165    8.70046766840242    1.06030496775929
H        13.73118858720417    7.65353622316803    2.19668269681715
H        14.62815790356003    8.81057054560453    1.20751167496230
H         8.47193363404653    8.44374942711120    5.35424691069919

