60
CSD_code = FATQIB | q = 0 | S = 0 | Stoichiometry = C23H27MnN2O7 | MND = 6
Mn        1.56574993418301    2.72517819864588    2.21248187940999
N         1.14165357276177    4.58092566061664    1.70310781293185
N         1.60414500491304    4.96361989852547    0.49064906651860
O         1.00404646411142    3.12839717708932    3.82430157766505
O         2.40258806070364    2.86472757808191    0.50276950667260
O         2.37928649198545    3.14116113420627   -2.30424845582211
O         4.14848305791567    2.76195457672081   -7.52620711487386
O         2.09318992416276    0.94163281592698    2.40758121851430
O        -0.12643261109936    2.19368322947360    1.48276083366043
O         3.66630518052730    3.28017538392568    2.92709280119399
H         4.13104849576562    2.47716923819111    2.64875159391613
C         0.10488454116366    3.94822247648484    4.30279463944107
C        -0.22985185000746    5.14093464151638    3.59649613811464
C        -1.11792191678895    6.04706476634125    4.19000655812076
H        -1.35284406357413    6.95936515464488    3.66083949052556
C        -1.69244204691002    5.78910175536564    5.41367414715562
H        -2.38332763390630    6.49480669842301    5.84931250653315
C        -1.38344254182066    4.61155054438363    6.09015220777179
H        -1.83977980166516    4.40479377317444    7.04698179541728
C        -0.49277824417340    3.71073601350827    5.55108352480875
H        -0.24149204371657    2.79686521275785    6.06962498368374
C         0.33571914632578    5.39942363315224    2.31226547700676
H         0.08008818079946    6.32868851338859    1.80999446977430
C         2.23354229065529    3.97837249537081   -0.09121722865269
C         2.79231239241800    4.20465756133270   -1.47983787199678
H         2.42319745248195    5.16946842641286   -1.84752882257172
H         3.89057869059800    4.23404714777277   -1.41133320361858
C         2.84339259313246    3.10123893194931   -3.58718166761396
C         2.45361994496477    1.99839626905784   -4.34246115564036
H         1.82118901851408    1.25867446707345   -3.87794792684360
C         2.86294164269371    1.84788485401043   -5.65322842784589
H         2.53809959697449    0.97811526253962   -6.20199415058946
C         3.67992742123418    2.80741310655364   -6.24197498461706
C         4.06699782077284    3.91201713240656   -5.48876067421437
H         4.69768065440328    4.65355105691954   -5.95304937067183
C         3.65703944984798    4.06313577745527   -4.17810516316658
H         3.97539258918233    4.93604492106828   -3.63089964250219
C         3.78785716405163    1.66571876480883   -8.32802520207565
H         4.14952724135342    0.72141555816735   -7.90715387868383
H         2.70331782158030    1.60791259848892   -8.46908346617668
H         4.26615143947533    1.83514563343131   -9.29167020966016
C         2.15911314355263   -1.43413776406470    2.40409837136831
H         2.93107008434362   -1.28989212911537    3.15623626387509
H         1.45788850038266   -2.19368879224913    2.73705460464706
H         2.63312203326922   -1.77916408667995    1.48593296093719
C         1.44946095190782   -0.12405529481425    2.13745068639757
C         0.16856580382227   -0.15112200135909    1.59824232917638
H        -0.28527415352729   -1.10446092685707    1.37710996284710
C        -0.54737322225909    1.02016859797366    1.29290659069969
C        -1.92164105173293    0.87273456159103    0.67771881581890
H        -2.56222477794069    0.28269643016510    1.32938309475489
H        -2.35854807406725    1.85642607902930    0.53049698633821
H        -1.84552958297046    0.36463237784414   -0.28121560098558
C         4.01979729195906    3.53421505218074    4.28087720575821
H         5.06591831699284    3.87181144995557    4.30936040396561
H         3.37415416862113    4.35246507751764    4.60811392206508
C         3.82731711858044    2.31421266215825    5.16796579552790
H         4.01814369967048    2.57016105900293    6.20640740826542
H         2.80213336626300    1.96110480879784    5.07048864449234
H         4.50576585715490    1.51490479956052    4.87365794308687

