97
CSD_code = FATTUR | q = 0 | S = 0 | Stoichiometry = C49H38N2O5P2Ru | MND = 6
Ru        1.35149928302122    2.22731727437049    4.95157904798159
H         0.97438434013509    0.87926772280188    5.60480260303143
P         0.76588050492018    1.33505979370470    2.88279251892690
P         1.38392612323449    3.19097802858895    7.05952748415190
O         4.23818352191148    1.49728941423598    5.17353848542226
O        -0.64018563193469    2.94426200648849    4.89294029624857
O        -1.79296344348283    4.81286020383508    4.53770033788720
O         5.09861651091725    5.92744039170260    3.01323311463516
O         4.33205375871863   10.03051578300688   -1.70064080711091
H         3.48004481680854   10.15890758399837   -2.13661586144613
N         1.62842153999429    4.01798725927357    4.09721105972129
N         1.66965490144690    6.59290576945502    2.99165184264615
C         3.12024617981891    1.74714202404549    5.04240968933321
C         0.52839420214794    4.78882163420419    4.03535060574447
C         0.56925892486061    6.06531048485342    3.49577938962800
H        -0.33003206137066    6.66439459647166    3.47873234337693
C         2.76075927618442    5.82365678665256    3.03139213190159
C         2.74300036253901    4.55346909679074    3.59484347930886
H         3.65480138372118    3.97065320656063    3.62984813697534
C         4.06588832434641    6.33581616445182    2.51190064393079
C         4.06018215118265    7.30333488918370    1.40521174880686
C         5.27112625851609    7.93166267620128    1.08844771580492
H         6.14191658720175    7.68970573831678    1.67901600180978
C         5.35332648887841    8.83850289780604    0.05935263368125
H         6.28004810621299    9.33220255328944   -0.18562434685003
C         4.21661705654486    9.13574007137641   -0.69418658733263
C         3.01054132223173    8.50570430028079   -0.39497802186317
H         2.13106878145187    8.73254416569570   -0.98390718796979
C         2.93100149617522    7.60012927719609    0.64212579541899
H         1.99006974807056    7.12456476974820    0.86321065921882
C        -0.76465486956448    4.15529600629986    4.54024008354191
C         0.64724829294363    2.65695562281527    1.62414892913608
C        -0.52403900334888    3.41196920263803    1.56250493865015
H        -1.37970175838992    3.13347816403144    2.16326861065058
C        -0.60082255084887    4.51403985094948    0.73091196111071
H        -1.51365699006814    5.08948264646880    0.69401160247558
C         0.49103061380594    4.88323500709759   -0.03736593313478
H         0.42948433003337    5.74345750225662   -0.68751867427597
C         1.66132428895760    4.14436022204659    0.02622022842444
H         2.51738389305194    4.43305457511212   -0.56671771775989
C         1.74292303440149    3.03962730107537    0.85503942993030
H         2.65809998816480    2.46584783832041    0.89512846470088
C         1.86030831396212    0.10757162394031    2.09059778992860
C         3.23212446108133    0.34736362165494    2.12694809614979
H         3.60432050834056    1.22982716108890    2.63157233385992
C         4.11655351740779   -0.53938130147609    1.54312121496807
H         5.17761327285805   -0.34087430273153    1.57542655957761
C         3.64039743768497   -1.68666807725308    0.92912361164942
H         4.32984688520982   -2.38484587711351    0.47828621638827
C         2.28008911616748   -1.94215368405485    0.90791674253208
H         1.90657669021381   -2.84270337644474    0.44268918235057
C         1.39059155229789   -1.05179985908649    1.48461804997696
H         0.33245294258610   -1.26785684489998    1.46949469059734
C        -0.88124116005666    0.57508175077520    2.74468300611420
C        -1.50417706080946    0.45510940683823    1.50229282129487
H        -1.01081714134336    0.82410451236125    0.61224281004605
C        -2.75369755284684   -0.12796913383552    1.41037538913001
H        -3.23455157797307   -0.21596106292258    0.44679637251806
C        -3.39092552833193   -0.59386639452911    2.55029877809883
H        -4.37131999608859   -1.04062952543272    2.47371110387705
C        -2.77132067059306   -0.48411491702819    3.78333323135781
H        -3.26662692429305   -0.84749733546709    4.67161793519834
C        -1.51802211907222    0.09489062482567    3.88130271686595
H        -1.02294308039274    0.18878213315123    4.83745431245677
C         1.51718939073214    4.99947309480139    6.93103583086956
C         0.40293987930505    5.82719443609524    7.02345877872258
H        -0.55750518016378    5.41347061115957    7.29920093467559
C         0.52475691148565    7.17807675004995    6.74526632555541
H        -0.34406440004394    7.81544458141898    6.81275987581158
C         1.74695810502442    7.70558381586260    6.36370120515841
H         1.83477378978770    8.75735302884553    6.13611778184847
C         2.85884726069526    6.88236918636296    6.25997901174803
H         3.81014216843849    7.28849388610618    5.94841082814652
C         2.74408462163248    5.53344693016776    6.53275606200768
H         3.60128262278561    4.87669228899293    6.43258465176534
C         2.73294677850290    2.73021480445424    8.19314632742337
C         3.37628799933017    3.63020838467439    9.03518359249786
H         3.12411404053168    4.68149597597110    9.00776207646566
C         4.35819942778692    3.18229989580736    9.90134872613949
H         4.86077812891884    3.88609636939902   10.54893154545073
C         4.69748798734666    1.84033924843539    9.93885392974212
H         5.46656290276521    1.49785182244648   10.61527311277022
C         4.05251793993019    0.93919578790827    9.10663142331661
H         4.31669585603285   -0.10746428406104    9.13339312447024
C         3.07367900730040    1.38112055088008    8.23680983705732
H         2.56532750441811    0.69150011979163    7.57262063116877
C        -0.04910891111977    2.96134202786790    8.15875530944984
C        -0.06043063387960    3.59575808669987    9.39975800400109
H         0.76968227556117    4.22481920983043    9.69122796482519
C        -1.13410808080486    3.42310244143742   10.25114259363790
H        -1.14345625093410    3.91810282552604   11.21144356692841
C        -2.19847187746678    2.61793645476924    9.87354713998936
H        -3.03739058321509    2.48813940462062   10.54158610164764
C        -2.18623168596948    1.98440166979861    8.64303744047593
H        -3.01733600799087    1.36110294586337    8.34772500866397
C        -1.11210087872946    2.15038717204307    7.78534198086478
H        -1.09873207755944    1.67239082990902    6.81688943528098

