98
CSD_code = FATVIH | q = 0 | S = 0 | Stoichiometry = C49H39N3O4P2Ru | MND = 6
Ru        3.37802485419626   11.79315948820318   13.94940378708445
P         5.28994078579882   11.67286214241896   12.65963639167032
P         1.37281518722152   11.76541926369825   15.10221420644789
O         4.56857947087177   13.83890715508479   15.78892120196320
O         1.95040600575648    6.50957936355097   12.94486834104465
O         1.39279133875689   13.23698571688494   10.60549326404573
O         0.75562641618869    3.58818892701188    7.48880611174308
H         0.50639309869351    2.70557845079872    7.79093726216361
N         2.52390859011638   10.54006083995802   12.62776364681963
N         1.21301279001868    9.06320450784992   10.64670730222101
N         2.55690389548175   13.14627140638380   12.57751939964568
H         2.56892004959931   14.16302185873673   12.55045604296310
C         4.11207155471683   13.04381866343592   15.08445944233069
C         1.90739464663503   11.13242182664854   11.59289900115400
C         1.26592544235696   10.37813192016492   10.61430912594541
H         0.77846106493487   10.88365448312522    9.79194318312371
C         1.82395285665547    8.47087310318135   11.67634288181993
C         2.47591969370613    9.20974950568448   12.65946831811683
H         2.96231833407085    8.70100556032628   13.48191957122295
C         1.77391494853509    6.98890499218026   11.83738615917165
C         1.50284607664830    6.14521135356656   10.66306521038868
C         1.61465711679141    6.58120310344244    9.34094189443422
H         1.89628900275080    7.59967204877937    9.13492735809753
C         1.36578717805274    5.71818728658005    8.29710519521525
H         1.45179478046794    6.04216466091146    7.27204352534595
C         0.99375610637454    4.39711507268821    8.54610076174744
C         0.88408047024819    3.95173022043690    9.86197304875119
H         0.59657009184064    2.92736965886708   10.06020644707843
C         1.14344061896956    4.81543983876339   10.90199741723144
H         1.06655255038887    4.48162829047401   11.92596971974233
C         1.92562874030907   12.63308558310083   11.53729619009675
C         5.72319207491367   13.11655503661171   11.62708707231021
C         6.30653413693248   13.03216811874893   10.36711745374461
H         6.48836022501893   12.07019975580748    9.90849798397999
C         6.64771327868086   14.18684458113232    9.68537917603150
H         7.09220420797303   14.11436297712202    8.70324011845461
C         6.42123866906885   15.42919895568853   10.25321531063316
H         6.68429696818362   16.32612938576157    9.71238839171479
C         5.85719059319607   15.51883533820999   11.51521998490746
H         5.68389117447889   16.48584237164592   11.96423345162730
C         5.51241333013219   14.36805161093373   12.19822233857820
H         5.07140555331633   14.42664513749131   13.18576883693900
C         6.91316894836131   11.40437925391135   13.45070670718017
C         7.02427789746166   11.40281285670055   14.83486930982594
H         6.12973513926829   11.51877951563906   15.43353214239311
C         8.26222661853018   11.23563560321159   15.43158955432438
H         8.34416997427348   11.23609860756069   16.50843185111634
C         9.39250406253307   11.06778300413233   14.65001482141048
H        10.35849630601511   10.93815167997582   15.11532782790691
C         9.28494060507649   11.06371474778289   13.26772150198175
H        10.16585775242917   10.92934976738240   12.65697287972261
C         8.05226283047322   11.23417026433631   12.66769478467466
H         7.96998020903368   11.23222045616711   11.58998889624453
C         5.20808162927045   10.29025034592254   11.48100257570641
C         4.54233114306547   10.42875368965890   10.26397501132618
H         4.17204680819631   11.39942030291317    9.95745154420311
C         4.34714444992921    9.32538999559922    9.45275169930550
H         3.83691585831370    9.44193970968649    8.50738114455070
C         4.79326178167979    8.07621674422212    9.85446694650749
H         4.63171232029029    7.21588312994112    9.22196938218237
C         5.43472292960745    7.92969347301582   11.07383165866762
H         5.76888648025392    6.95404812016493   11.39410851797692
C         5.63745455982215    9.02926913699942   11.88753682994786
H         6.12461585053408    8.92128670467781   12.84758489380542
C         0.31825442431364   13.25565484386961   15.02465126213126
C         0.97084687689368   14.48395357375232   15.06718184235743
H         2.05306349880267   14.50276081165407   15.10058842626628
C         0.24971246769828   15.66292280804377   15.06289402049260
H         0.76550129240894   16.61161267148917   15.09040799034252
C        -1.13425966101660   15.62530222298317   15.01894492584745
H        -1.70113726564336   16.54438990210721   15.00630107595220
C        -1.79053250931937   14.40638544265991   14.99037830687032
H        -2.87009570441353   14.37419486298430   14.96002007125816
C        -1.07229908082465   13.22389941048916   14.99804570679912
H        -1.59978563404125   12.28061344978997   14.97188994620634
C         1.36724229247602   11.51003460049382   16.90951027604878
C         0.16055102940654   11.39480119325171   17.59510247905231
H        -0.77319956990673   11.43430572181508   17.05233041296134
C         0.15732242783209   11.22467329200679   18.96610349915742
H        -0.78063607268177   11.13234903218819   19.49399396286261
C         1.35431941403752   11.17404225854495   19.66392807032234
H         1.34761870882893   11.04278120274992   20.73589939823067
C         2.55576602729444   11.28890206148589   18.98585302049803
H         3.48896663674739   11.24646281878453   19.52772289869921
C         2.56407045834138   11.45622513062259   17.61171981876609
H         3.49645490290847   11.53108063383008   17.06669186583645
C         0.28703467755278   10.42912070739131   14.51980075570677
C        -0.48705790293561   10.60006390703174   13.37264458907625
H        -0.54112972021844   11.57188547737772   12.89664396398538
C        -1.17483170310851    9.52639428534124   12.83661859228861
H        -1.76930906344981    9.66281748856487   11.94493364413351
C        -1.08541044970717    8.27658980019591   13.42871348289020
H        -1.61429670986631    7.43944107484150   12.99782706815567
C        -0.30567637024925    8.09782930630325   14.55984052625474
H        -0.21982019477685    7.12043624612540   15.00902979317078
C         0.38573462023813    9.16686282725408   15.09979591568779
H         1.01423903404553    9.03164019713025   15.96989560665157
H         3.87806069889755   10.59748406539059   14.79243477635957

