55
CSD_code = FATVUT | q = 0 | S = 0 | Stoichiometry = C26H20N4O2S2Zn | MND = 6
Zn        4.39505165380008    0.64986853804643    9.51483669153574
S         2.32076540774564   -0.16425911552989   10.86378028283215
S         5.26903083109815   -1.79149310085676    9.75223415464285
N         3.99953330094244    2.67576489297543    9.80333950780088
N         5.71353856139335    1.17951495690474    7.99016060214290
C         6.18512612380770   -0.11264973089346   11.78137258137436
N         5.57483191021323    0.91385568472786   11.09249992898279
C         5.85372932058240    2.20285594627253   11.33753059093047
N         3.17972835709880    0.27453695810981    7.98856802109398
C         5.01086377562638    1.30693699559654    6.86748892104775
C         2.99044397591656   -1.77498367447561   11.43436228825069
H         3.64002158600884   -1.52346784495219   12.27378191448587
H         2.14539183555454   -2.36215368768331   11.79745933583588
C         3.73342117843483   -2.57151782240663   10.38564267282884
H         3.11711666034993   -2.72962977705342    9.49962088763143
H         4.01581007566866   -3.53874760935907   10.80444420911408
O         6.75030861594396    2.67318111474788   12.02899598282215
C         6.65765302223177   -2.49772801625307   11.97255330630346
H         6.58280580393552   -3.48551542863486   11.54232489360662
C         6.09646421132203   -1.42813918068198   11.29357195827222
C         1.46656139690668   -0.68327585889149    9.38276406397346
C         7.30175076259490   -2.30146654642384   13.17768596828848
H         7.73627184928921   -3.13645609583094   13.70528186046111
C         1.22857050833485   -0.85018985120058    7.01247208907841
H         1.58892392173817   -0.64045591413403    6.01947599995936
C         1.97275914813028   -0.38072337607435    8.10665979134644
C         7.38501064394448   -1.01509232167974   13.69040428727226
H         7.88337115314891   -0.84246760921083   14.63297920022811
C         0.28112573398189   -1.38070115051947    9.55104911454153
H        -0.07693025928840   -1.56686116689195   10.55282245267408
C         6.84400942694880    0.05376821373959   13.01012078501535
H         6.92633319539888    1.04732431459305   13.41741920262423
O         2.92159806653442    1.03786325321867    5.81997301717219
C         6.89206060179291    2.23320415985075    5.72048052243929
H         7.35298723472014    2.64521590437520    4.83485164301452
C         4.92022333590368    3.15855016921028   10.63359396901780
C         4.16515804307063    5.39690950398515   10.27029255190259
H         4.22905876025601    6.45964357596361   10.45206593772104
C         3.57340599139399    0.84490441416315    6.84023592453560
C         0.05989816114353   -1.55896434301725    7.18482764421696
H        -0.48128792702591   -1.90304426378263    6.31573612609936
C         5.03497247079962    4.52097409303918   10.89214215811124
H         5.80382578705043    4.85025923302696   11.57373961990191
C         5.56916193424646    1.83278942548388    5.70648881560980
H         4.94692045449746    1.91112040136817    4.82851543088950
C         3.16556736200265    3.51417450187340    9.20494022395153
H         2.44118768108078    3.06694587563933    8.53766172688159
C         6.98207257083504    1.56311619794696    8.00557759663547
H         7.50331278113481    1.44050578349609    8.94540830044137
C         3.20663100034451    4.88279418255061    9.40827827288081
H         2.50551365776759    5.52747108977567    8.90253126445162
C        -0.42852748764438   -1.82886643218275    8.45499564407119
H        -1.34975029178745   -2.37457739257395    8.58889569698811
C         7.61686333707293    2.09373367800295    6.89578017880429
H         8.65195278600705    2.39074425250983    6.95348418726647

