41
CSD_code = FATZIM | q = 0 | S = 0 | Stoichiometry = C16H21O3Re | MND = 8
Re        2.26252358638283    1.26250703870256    3.74435890334485
O         0.34756289591401    3.62568524152322    3.20771075050540
O         0.43665182402814   -0.16375869815850    5.78704208890685
O         1.39158793353701   -0.41700356058627    1.30361319141019
C         3.92350268508408    2.08514030540975    5.20171965672763
C         4.20737085597386    0.69345953315934    4.97161034755765
C         4.51053500485477    0.52326249478717    3.58875230511667
C         4.41690945421981    1.80887981359145    2.95225483303940
C         4.08601090845288    2.77356202262897    3.95482907997623
C         3.82177783459839    2.72539546310860    6.55833045043335
H         3.41192938547260    3.73389184672427    6.46137135135794
H         3.13288682050822    2.15562804274291    7.18944387055441
C         5.18029647339656    2.80078100383533    7.27090227591801
H         5.02524462917013    3.24629293200861    8.25679590007486
H         5.56860784566682    1.79167614609206    7.42375481825384
C         6.21622906108921    3.62183013997562    6.50843699492520
H         5.82960832097608    4.63057089667991    6.34366450526724
H         6.39454287419869    3.16590539025340    5.53126394343873
C         7.53414380618605    3.70433256434549    7.26870291371058
H         7.38437540145262    4.16366568096191    8.24362446622179
H         8.25835090747274    4.29931432412814    6.71691268977153
H         7.95131016642181    2.71054921805651    7.42030108823789
C         4.40562127911149   -0.35187092075873    6.02799891512537
H         5.46739958757247   -0.43156300078397    6.27337742416045
H         4.06937819862135   -1.32984709290094    5.68495373812795
H         3.85952724245936   -0.10382616698462    6.93623123064206
C         5.10980296738069   -0.70652779884290    2.97734281678099
H         6.19554483412452   -0.68261531954261    3.09682711894210
H         4.88807294661441   -0.77077986510634    1.91353948404911
H         4.73658021392029   -1.60882533384486    3.45845594807839
C         4.92940817471281    2.13383224219458    1.58120901316260
H         4.43150942929593    3.01083276021629    1.17118887381222
H         4.77715533477619    1.30342980394926    0.89414400612730
H         6.00105662278121    2.34307425827124    1.62853249821661
C         4.11684288489042    4.25757131132483    3.74516446777455
H         5.15104401660224    4.60815742095602    3.74574161070852
H         3.57710578120225    4.78161313960872    4.53124652794841
H         3.67198344143867    4.53057057141395    2.78883263533119
C         1.00879804551998    2.70789270147622    3.40015237452087
C         1.06509931471150    0.37376829435677    4.99180081940251
C         1.65251100920612    0.21654515502600    2.22366407233903

