36
CSD_code = FAVBAI | q = 0 | S = 0 | Stoichiometry = C15H17O3Re | MND = 8
Re        4.26909539387739    8.59422925606414    2.98609391979651
O         2.27033626432758    7.44282042025645    5.04046185001630
O         2.48127208819694    8.12687775690885    0.51105483543120
O         3.47956204084165   11.55036069479071    3.39282893873839
C         5.87946340881311    6.85720570104948    2.85928515148811
C         6.17098943351740    7.77583092408932    1.79903830261670
C         6.51505206853181    9.03317485713091    2.38694919282560
C         6.47012254122254    8.88227264703358    3.81649821633648
C         6.08745991818774    7.53803006501909    4.10508828387299
C         5.69673273632440    5.36802528673094    2.72324657532920
H         5.81243714697514    5.08672346089895    1.67228847950178
H         6.47446385313773    4.85565303694327    3.29834312100416
C         4.34255265102382    4.92336968411438    3.19566048465658
H         3.50656520681249    5.40533946601655    2.69905594960706
C         4.13370238688190    4.03864414008148    4.15182189675810
H         4.94679618876757    3.54536217895484    4.66128026434850
H         3.14080757046742    3.76302627200189    4.46260808626982
C         6.33155705287250    7.42458117271254    0.35065177362539
H         7.35230430512924    7.07909732241820    0.16918832388469
H         6.14976077107738    8.28835446174991   -0.28644499478664
H         5.64428696968105    6.63490061515419    0.05098307937881
C         7.14180412767946   10.18738075126640    1.66383128880062
H         6.75147880478471   10.28000504739011    0.65179814404621
H         8.22236812050547   10.03850308245282    1.59940288873553
H         6.96018289774165   11.12623093553963    2.18439196934455
C         7.03280371058919    9.85917392009316    4.80440042428488
H         6.57711886785736    9.73595344580635    5.78541074738912
H         6.87276521144082   10.88682870288888    4.48214426547303
H         8.10886083626338    9.69933536767225    4.90660144349674
C         6.15596777127928    6.87384641205846    5.44605087951621
H         7.15942745199408    6.46913855589002    5.60054478451514
H         5.44171455401797    6.05541154312702    5.51442556864164
H         5.94976664678219    7.57938876460972    6.24905604635076
C         2.96543306197593    7.90230019489733    4.25243103707313
C         3.09637894529666    8.32815342408031    1.45929356748889
C         3.70980899512615   10.43787043210824    3.23603521414391

