42
CSD_code = FAVBIQ | q = 0 | S = 0 | Stoichiometry = C17H21O3Re | MND = 8
Re       10.32182818837100    4.89788956498540    6.96872881424706
O         7.73919615854534    3.22102066480657    6.73733621885988
O        11.99991397739275    2.68919413466937    8.32620697404783
O         9.54311411293200    6.36184920922363    9.57407898046012
C        11.71175577775166    6.61636962653988    6.13725978112268
C        12.14155603719204    5.40161462201279    5.51544829860946
C        11.05575441224222    4.89488207192921    4.72729145536553
C         9.97586046104935    5.83611674791455    4.80238476112666
C        10.36676237937255    6.88454091021702    5.68582281016606
C        12.56173605583058    7.61449450492650    6.87352705730859
H        11.90823695491335    8.42705008006710    7.20670501213160
C        13.30699452431093    7.06964278892309    8.11879444576304
H        13.21907336223934    5.98532303209817    8.20420361268943
H        12.86480952659981    7.49328268626541    9.02111395606464
C        14.76870403168711    7.51460819770053    7.97643827355395
H        15.37837214146775    6.70732713188279    7.56547012304143
H        15.20250916201265    7.80381880554721    8.93248600671789
C        14.72203689026060    8.67517281445599    6.98432508075391
H        15.68611062903097    8.86322897072976    6.51300262425629
H        14.40157491954102    9.58729252233888    7.49099871731625
C        13.65725492903923    8.23518282813670    5.98581848738020
H        13.27222435450491    9.06137677132289    5.38768128365677
H        14.07023763472535    7.48896375733646    5.30644034948929
C        13.52866944113173    4.83335663925456    5.46513295986270
H        13.99264443878610    5.09575354212276    4.51084319797555
H        13.51198539864081    3.74561830877265    5.53521757350786
H        14.15110612588045    5.21518995449480    6.26821796924153
C        11.17796884765407    3.80045858393199    3.70917530812284
H        11.58282160711683    4.20559184752860    2.77846866158283
H        10.20992778265755    3.35290049465022    3.49092145057620
H        11.84563197260745    3.01293934129021    4.05432477042530
C         8.76842677849047    5.83846489243229    3.91561450350389
H         7.92440797397327    6.33539323794795    4.39095257243706
H         8.46412400061432    4.82540130375458    3.65791032193333
H         8.99811176779791    6.37006618504289    2.98910111588380
C         9.63111109092698    8.18114741351748    5.85391723978337
H         9.77333217254539    8.60148595203039    6.84837454840339
H         8.56247310612903    8.04603433348563    5.69775903510984
H         9.99238002163941    8.90672696289080    5.12120386008976
C         8.70303866486293    3.82561418937795    6.88359770451853
C        11.32572276329656    3.49487357524240    7.86299378945062
C         9.81259942423578    5.76344079820295    8.63331029346266

