73
CSD_code = FAVCOX | q = 0 | S = 0 | Stoichiometry = C27H40F2NP2Rh | MND = 4
Rh        4.00579918866487   16.12920388627121    1.72074532283964
P         5.22588406078726   16.37596138476985    3.60392470793108
F         4.09582995470101   18.84894654109279    0.81431979898811
N         3.34786117299208   14.49254337842748    2.75525022441195
C         4.59791324583003   17.60726620063597    0.78685242830051
P         2.55863303945682   15.29486579804038    0.20209330536481
F         5.62487154941763   17.67998602036682   -0.07035576522979
C         5.13218977635553   14.72832297937019    4.33288148261802
C         5.96437992802441   14.21876060831188    5.31806908425271
H         6.70854227171848   14.85597094574779    5.77653371113213
C         5.86836869680701   12.89581666385110    5.71709293121288
C         4.94083164325756   12.08364368364511    5.06521694009700
H         4.88912931335508   11.03502485372394    5.32494501906949
C         4.10182042074008   12.57499007679826    4.09183887238523
H         3.42789905416998   11.90189344766325    3.58186779849572
C         4.14353278178567   13.92967138946342    3.71601866117732
C         6.75191867868417   12.33340602526183    6.79071428613608
H         7.45962438580090   13.08045598513550    7.14267144774619
H         7.31007921255341   11.47503829117616    6.41766168022340
H         6.15491236967344   11.99739437457933    7.63885082830551
C         2.11326957616728   13.96699068247079    2.48445081502428
C         1.32435381633346   13.26512778365353    3.41148272107373
H         1.67589840706579   13.14353528223417    4.42583065530074
C         0.08706610873556   12.77136104618836    3.06094073277373
H        -0.49524799836758   12.24272048553363    3.80338122223828
C        -0.44045233647402   12.94820649975617    1.78467156649963
C         0.29897915474054   13.68961157250268    0.87432062029793
H        -0.11378339461915   13.87799678867631   -0.10757130907807
C         1.54156756191775   14.19903024639189    1.21248586483457
C        -1.77339141252449   12.37634315940265    1.40198996709455
H        -2.33510197233564   12.08111649744638    2.28497573295489
H        -1.64254389999405   11.49507038810456    0.77196307695565
H        -2.35993228301938   13.10247927034303    0.84111494656980
C         3.34752600308895   14.22526291765172   -1.10339888066306
H         3.82944815750190   14.90971327542883   -1.81294865693987
C         4.43257446540661   13.42276402831559   -0.38659117139759
H         5.04277086656749   12.86765393824314   -1.09714110270815
H         3.98109388283587   12.71634618801405    0.30931106647401
H         5.08182598502288   14.09912104650646    0.18436186420107
C         2.36784910706107   13.32236117501304   -1.84070208475317
H         2.89950630190606   12.71609149256950   -2.57308456373121
H         1.61308591736262   13.90364673666151   -2.36697361059235
H         1.86964551482877   12.65370171541569   -1.14120516272309
C         1.32814027690979   16.37647740845381   -0.67001117807650
H         0.55452626041053   15.74902081633303   -1.12656075247066
C         2.00028567460586   17.21839602124884   -1.74724008148886
H         1.29740794037030   17.94625382445055   -2.14983487898829
H         2.35771709068187   16.60068002989507   -2.56861990695981
H         2.84632505389394   17.76215625715191   -1.33059800311931
C         0.70456141674056   17.25255042302627    0.41417495594128
H        -0.00603441377264   17.95775642030759   -0.01348148117379
H         1.48676548750001   17.81599545139786    0.92922806291607
H         0.18669767555746   16.63773460827094    1.14970463552128
C         4.49066072035346   17.54949351372663    4.84997813477828
H         4.69738262447170   18.56151160705974    4.47941223691249
C         2.98164633260994   17.31275097137275    4.80581051706205
H         2.45148158974013   18.05230398726525    5.40359848300625
H         2.74448788990433   16.32114019614318    5.19005424109496
H         2.62414859168197   17.37348630741759    3.76969977476056
C         5.04890672294690   17.39088984767360    6.25775404979194
H         4.56427946992011   18.09600541333321    6.93198848688212
H         6.12016859066528   17.58166642717637    6.28220304818777
H         4.86420261186784   16.38381864582994    6.62689054374264
C         7.04510068289294   16.73854345320323    3.54136213558848
H         7.49001040785265   16.52739189352326    4.52018031513182
C         7.30582772719443   18.19234841886139    3.16790584782543
H         8.36874666112577   18.35131690980717    2.99232978867307
H         6.98701382523285   18.86876095687136    3.95837054902771
H         6.77148456391485   18.45117690769694    2.25547751675329
C         7.62177277633135   15.78262658527674    2.49949738620988
H         8.68859113005771   15.95073107610225    2.36253475366602
H         7.11956464216019   15.93458345851968    1.54066360254213
H         7.46780170227960   14.74821741187820    2.80537014110572

