43
CSD_code = FAVCEK | q = 0 | S = 0 | Stoichiometry = C13H21N5NiO3 | MND = 4
Ni        1.56708193594402    1.00269231114180    1.78861389685927
O         2.55605280221863   -0.00538936985456   -0.60517296835075
O         0.71285055948649    1.60387452870387   -0.91865461820158
O         0.57893719724434    2.10713354859809    6.92264329927584
N         0.44904882457198    2.02739549574653    2.91386092902081
N         2.56381574656603    0.22236990273490    3.18682939816166
N         2.65736335205715   -0.00451698703218    0.69258124265885
N         0.54851372021808    1.81332088613487    0.40343659691035
N         1.40950134575862    1.36916524505651    6.36061107280925
C        -0.37391349183431    2.63418258430513    0.75456135844069
C         3.55391843343812   -0.74278184334945    1.25800713970472
C         4.45842457664673   -1.58483450125889    0.41928956264057
C        -1.21292351239398    3.31420915517248   -0.27178245888091
C        -0.55406240425438    2.86483273136002    2.23655810710247
C         3.62870717045293   -0.70282162938271    2.76397154264317
C        -0.30410759460859    4.34668780155402    2.55441864257672
C        -1.96927137116800    2.43378249853873    2.64955776424325
C         4.99807849894210   -0.16170931178309    3.20089133337663
C         3.37400458930413   -2.10537422327529    3.33466267889300
C         0.50177758231905    2.04294685333297    4.20356656365638
C         1.41114839506228    1.30033760862856    4.99832451256163
C         2.38706861911340    0.43886179643493    4.45065644550243
H         1.51396204776325    0.89397550207675   -0.97166746767636
H         3.86276945000663   -2.30490298297441   -0.14301054484109
H         4.95679502913993   -0.95137983040134   -0.31533299853972
H         5.19833908417934   -2.10945215698834    1.01363878126290
H        -1.95397956042748    3.97297402393267    0.16636856698391
H        -0.56625265745020    3.88193765331746   -0.94131839685209
H        -1.70726411020578    2.55976551537660   -0.88431490450831
H         0.71518206390221    4.61367329603429    2.28140948895068
H        -0.99224545011239    4.97890267137291    2.00116347517103
H        -0.44026801957338    4.53867917742101    3.61513826984359
H        -2.71720126553512    2.99837548742267    2.10074438615754
H        -2.12595197971186    2.60101678137743    3.71161282433047
H        -2.10599162482032    1.37427811392625    2.44105049605583
H         5.13238648803771    0.84721624011428    2.81560432859703
H         5.79465763288638   -0.79125337416760    2.81564135059554
H         5.07503806155685   -0.13384447918898    4.28435632235524
H         4.09867031811856   -2.81102923711952    2.93952553197801
H         2.37553603695224   -2.43759869191231    3.05739106318284
H         3.45236148599519   -2.10374911850548    4.41830719223861
H        -0.17965633555221    2.65781170297300    4.79365720766893
H         3.01159832976574   -0.05576137559501    5.19130298544128

