91
CSD_code = FAVDAH | q = 0 | S = 0 | Stoichiometry = C44H39ClO3P3Re | MND = 6
Re        0.31904035050391    0.29803972209213    3.96445801778816
P         0.93457089707373    2.36554387874218    5.12407696496425
P        -1.77841280494602    1.38616652483839    3.31643517281830
P        -3.61678755734528    4.41841057349184    6.59010074076902
Cl       -0.99108633921542    0.21451259313144    5.98582671712449
C        -0.41948376244635    3.44402676434775    5.74558174637850
C        -2.42420830193327    2.71437112774039    4.40837476070740
C        -1.48580641439204    3.88070322669879    4.73456881926292
C        -0.82551533556395    4.41962752052115    3.46750258806493
C        -2.33800548488068    5.00205339925182    5.35733862831425
C         2.10928255708762    3.58636905051192    4.43420382335177
C         2.52411529599002    3.49816339758440    3.11288338103053
C         3.42138543443084    4.41644517221286    2.59704459003019
C         3.91294675658626    5.42879942745715    3.40287092877149
C         3.51236411938639    5.51552490821533    4.72730426008824
C         2.61741987676769    4.59808872470322    5.24323298533779
C         1.85089887217458    1.95187799557012    6.64254547745572
C         3.19597101555350    1.62359676810378    6.47021860478303
C         3.96373109051607    1.23316922484264    7.54854848859701
C         3.39448365581074    1.15672839207079    8.81042837987133
C         2.05717209808520    1.46555667627558    8.98264610934033
C         1.28169662501746    1.85839427355764    7.90483922682566
C        -2.06565497691702    2.09092780770099    1.65391801979464
C        -3.35144721530823    2.45441469083941    1.26525640189604
C        -3.57272870677146    2.98017703281420    0.00693016222097
C        -2.51604902796816    3.14267716294986   -0.87582749333924
C        -1.23706205900394    2.77086497711465   -0.49907616736814
C        -1.01445911169392    2.24522821856161    0.76130111947709
C        -3.12966388119891    0.16620073193667    3.32564779068799
C        -3.17097099921600   -0.69066134749494    2.22558742851042
C        -4.11893599520970   -1.69099209923355    2.15383469818399
C        -5.03120280127738   -1.85208599134967    3.18527535725951
C        -4.98565561256044   -1.01299685811310    4.28431307246822
C        -4.03747570386915   -0.00652595257227    4.36142152473822
C        -4.23837304169950    6.03582287929914    7.18993718182127
C        -4.30007291919924    7.18616432932993    6.41221839313970
C        -4.86622488760193    8.34293312447842    6.91990390847499
C        -5.39213543555060    8.36266108407423    8.19952625782871
C        -5.35967772629727    7.21263605983469    8.97207190802447
C        -4.79545813929203    6.05782782424339    8.46800374509701
C        -2.55013089474539    4.03452374261138    8.03836103837786
C        -1.71275545910252    4.98299663752254    8.61718359761884
C        -0.94475910664308    4.65058054120033    9.71668957985477
C        -1.01063638514653    3.37387718469233   10.25314153165286
C        -1.84502854231344    2.42606639784980    9.68488419203079
C        -2.61316145299942    2.75620686377392    8.58152756358848
C         1.36889492231965    0.37709085510690    2.33554151051028
C         1.75240923954286   -0.64551224303540    4.89691059846872
C        -0.42128528832320   -1.43647637798227    3.45589624015502
O         2.01572888596690    0.32949102857056    1.38008092351038
O         2.52395264988134   -1.23792467007657    5.49697456604601
O        -0.86074342129268   -2.47190362462806    3.25332377494721
H         0.06957679076000    4.32301645060912    6.18192900879319
H        -0.90502056132478    2.88577336560579    6.54907394168502
H        -2.70330735291762    2.22607785671158    5.34764167039081
H        -3.33442818303497    3.09411576071478    3.92815347063187
H        -1.57410663013606    4.72937370421281    2.73928420003449
H        -0.20945702753055    3.64156967427826    3.01356719804567
H        -0.18705118178370    5.27191483694075    3.69728437053513
H        -1.70143045754400    5.77190552530250    5.80480802782126
H        -2.91645966963742    5.46732223655983    4.55165192886187
H         2.14431664581025    2.69690783793762    2.49371518570628
H         3.73965460700255    4.33774721513663    1.56821492703621
H         4.61459886801619    6.14638852422048    3.00419963123340
H         3.90490949181834    6.29795780877432    5.36062912952110
H         2.32471158726836    4.65562852222215    6.28389196330959
H         3.62999525823168    1.67045875317107    5.47802502521917
H         5.00351251738644    0.97902447364776    7.40505589859302
H         3.99185511723052    0.84537928617315    9.65466350815103
H         1.60508871574651    1.39225667458933    9.96095695143873
H         0.23487537743776    2.06728782242720    8.05969403775945
H        -4.18240062811143    2.30967032800539    1.94342642038470
H        -4.57324326976277    3.25938481984804   -0.29018236577805
H        -2.69369313046386    3.55180046666308   -1.85934165131091
H        -0.41287958424210    2.88528937690068   -1.18733770422222
H        -0.02036679135645    1.94186853699411    1.06005630282078
H        -2.44441514555834   -0.56541065772698    1.43054112236902
H        -4.14233448397682   -2.35065411354392    1.29909299973806
H        -5.77040193604026   -2.63785532771164    3.13489684737162
H        -5.68828264461203   -1.14462332603176    5.09430886494143
H        -4.00607298806776    0.62212669521091    5.23787845912557
H        -3.90682734513341    7.19295870664192    5.40636375400428
H        -4.89830367959822    9.23353192635424    6.30852582697916
H        -5.83167990574943    9.26788998642917    8.59146466504160
H        -5.77766079428770    7.21694550593768    9.96824967660191
H        -4.77399011370858    5.15854613389573    9.06963966137385
H        -1.67335118779788    5.98621712721317    8.21365816889582
H        -0.29538803488319    5.39051452320468   10.16255826910137
H        -0.41208559590880    3.12171072208956   11.11615070025728
H        -1.89703776275509    1.42905377692024   10.09676080836363
H        -3.26292844262403    2.01706911155730    8.13316026149451

