62
CSD_code = FAVGOZ | q = 0 | S = 0 | Stoichiometry = C28H25N3NiO5 | MND = 4
Ni        1.77409212031413    6.71429412540319   -0.10409567207238
O         3.12091410162610    7.48826384726761    0.89281892481058
O         0.62858209322380    7.09900816023628    1.29789221709819
O         4.61145169008138    8.62895712835181    2.77052204265895
O         5.25937861903113    6.53861103593104    3.29619406387528
O         4.02511682609894    8.71656662485588    7.28405348131454
N         2.90897794770726    6.41377334806428   -1.54786824410716
N         0.41287374591096    5.93640505146764   -1.13298797494690
N         4.22115039169392    6.98763360046006    5.85082074135779
H         4.62922606551872    6.08345487558957    5.66513721459782
C         2.31813145059978    5.56075901159503   -2.48694282246357
C         2.96725599343049    4.95212602840074   -3.55713880518346
H         4.00450938568768    5.15906399352597   -3.76882649699176
C         2.29995183278009    4.02287776623475   -4.33324186912620
H         2.81140406500725    3.54826866343013   -5.15632138900115
C         1.00004184790817    3.66021432966867   -4.01957301495614
H         0.50437825911136    2.88779224295860   -4.58781346689983
C         0.33435115128939    4.26215289597380   -2.96795546220565
H        -0.64801852777723    3.91175397125326   -2.70148252731597
C         0.96076822937072    5.25907698115291   -2.21945181561574
C         4.28952888471315    7.84931459093239    0.53225002664640
C         5.13902557556098    8.49481786950370    1.48412706765422
C         6.37719805225307    8.96768537660660    1.15631621435084
H         6.97589771958815    9.45393053085962    1.91125836445247
C         6.86195648783570    8.81787486586581   -0.15137192444859
H         7.83845080376060    9.20152384227997   -0.40037210015184
C         6.10844887346317    8.16827356300331   -1.08822396174783
H         6.48901155810809    8.02682061173142   -2.08971115111298
C         4.82802082203460    7.66388019500891   -0.77904357847021
C         4.09665120277511    6.92354142234360   -1.73406279813581
H         4.59901076653852    6.75666278316833   -2.68501392626841
C        -0.63504794607065    6.99965473359871    1.32472341348954
C        -1.41849959477402    6.62088749511663    0.22976150010070
H        -2.48767601200811    6.73382988462493    0.30105943629373
C        -0.88998940567099    6.16135702252272   -0.97589670485873
C        -1.88100342817865    6.00254288080567   -2.10024023823782
H        -1.39479091757206    6.05737863177283   -3.07072740233081
H        -2.61759996820909    6.80046293343800   -2.03076679740507
H        -2.41559254116629    5.05709227532340   -2.02132847496269
C        -1.30592965239848    7.39015430282288    2.58859276627258
C        -2.45425689962344    6.74385585714871    3.03834012887471
H        -2.87012037829435    5.92587330368730    2.46930080588762
C        -3.04419355454679    7.12715258277674    4.22869819025115
H        -3.93109989244437    6.61775142966522    4.57627449003274
C        -2.49972305143387    8.15779264063278    4.97804137854443
H        -2.96514486170517    8.45415429348593    5.90637198701970
C        -1.35615418004083    8.80355322451687    4.53696378345775
H        -0.92779249410815    9.60485298532761    5.12023749472010
C        -0.75896662651298    8.41972670040098    3.35141900519026
H         0.12832607062592    8.91921088791597    2.99440004377483
C         4.61140885967055    7.52604766648979    3.52401177587614
C         3.65952063585546    7.65917913998947    4.70247372014467
H         3.51437988889741    8.71101222471204    4.96199122994560
C         2.33960818441994    7.01034597682582    4.26797425003806
H         2.48096182852350    5.93660783856194    4.16240654864408
H         2.02188857519530    7.40356526340272    3.30582222466923
H         1.56778342573931    7.19666291557324    5.01004363240200
C         4.40888045008171    7.59188365115481    7.04679341291033
C         5.11707432008114    6.71248748999353    8.05730950276960
H         6.09976325450200    6.43388260073482    7.68419385743444
H         4.53987786093707    5.80781874985445    8.23256869663733
H         5.22727001497016    7.25504308398805    8.99119498480834

