79
CSD_code = FAVHUF | q = 0 | S = 0 | Stoichiometry = C39H30F6P2PdS | MND = 4
Pd        1.78311305576559    3.01848152409689    6.38770608677910
P         3.95705713370814    2.98083732291527    5.59123140217044
P         2.01916512478773    4.46433368968029    8.15999771282452
S        -0.42157866126346    2.26023435907567    6.26094696248339
C         0.81218459252324    1.82882643317226    5.13835218096829
C         0.79409847148412    2.53789525819771    3.83548608552041
C         1.30797533921660    0.43230223659949    5.21819958421430
F         2.01152721643599    2.56618273769491    3.23777389215515
F        -0.06172344310980    2.08383817482992    2.90701238935526
F         0.49192473099337    3.84474388886915    4.04199765886100
F         0.38017599199706   -0.52842542100190    5.08783495934402
F         2.26920877084541    0.14081930581175    4.32346733161579
F         1.87568410648660    0.23688880405936    6.44647970002951
C         4.97433846789984    2.84989662115801    7.10024330647753
C         6.19559436776656    3.47558703218392    7.30322532247948
C         6.89572394179044    3.25097478063230    8.47593290091696
C         6.38920813952049    2.39987871978242    9.44322233858221
C         5.16407633693933    1.78192029992109    9.25056499738151
C         4.45560308878139    2.01249332511845    8.08687624427348
C         4.80227301027904    1.77081644853670    4.52346660562118
C         5.24856547480213    0.57107595244799    5.07174838620319
C         5.84012281674323   -0.38088029875083    4.26342729762227
C         5.98412485985925   -0.14869352844005    2.90546099446207
C         5.52748568268844    1.03738639656940    2.35514498677059
C         4.93190527060258    1.99375099303627    3.15602392017369
C         4.33460529015234    4.58427959331054    4.82962291685889
C         3.29632963885769    5.51172464053927    4.78457160369097
C         3.50492007757817    6.76656612025402    4.24050767597570
C         4.75153084265264    7.09968889104450    3.73624993695289
C         5.78200553625343    6.17242454170913    3.75947431874644
C         5.57765684547921    4.91450382294311    4.29710049353308
C         1.20241398557371    3.69047486111923    9.59235669095419
C         0.79562165691495    4.40701657321459   10.71348592715199
C         0.17065401068188    3.75100795415152   11.75780324115554
C        -0.04954793256903    2.38374965598035   11.69183291012450
C         0.35112143053801    1.66758660526684   10.57602682382777
C         0.97321708546620    2.31879534632184    9.52629906023564
C         1.05132894094279    5.98003049536239    7.86587368044902
C         1.20982506732555    7.14931891576140    8.60392666161465
C         0.42484555379094    8.25217496228995    8.32110212149077
C        -0.51480470670747    8.20022525993778    7.30342629441241
C        -0.66992794406306    7.04137151641606    6.56069294397119
C         0.11163123510869    5.93498058402763    6.83914974564497
C         3.54628214244056    5.15640719920946    8.86893512476494
C         4.24355310685708    6.09773689798561    8.11496350994205
C         5.42065600811018    6.64006187643153    8.59100569314143
C         5.91571903527317    6.24630184090836    9.82424570969097
C         5.23257475996436    5.30344802508042   10.57250261130773
C         4.05541488308035    4.75316895572870   10.09681410672245
H         6.59460367303258    4.14677629404875    6.55801677857525
H         7.84432446299300    3.74284197836340    8.63346006902753
H         6.94629249458957    2.22417354242854   10.35145395856730
H         4.76143866344979    1.12504107619090   10.00756485851653
H         3.48865907826465    1.53493685789020    7.92554059380423
H         5.12730570939312    0.38302643298924    6.12987205601593
H         6.18456944234427   -1.30976923744641    4.69375875041940
H         6.44372335997739   -0.89557598786967    2.27521143049667
H         5.62784893251565    1.21599021519496    1.29469243887572
H         4.55724453318692    2.90868475447251    2.72100135160684
H         2.31326384305441    5.23880021051226    5.17550537654441
H         2.69556640254879    7.48110141010388    4.20902325669683
H         4.91884881183717    8.07893370581587    3.31258901861534
H         6.74803222215662    6.42974747041266    3.34986953717822
H         6.37301290320168    4.18212685354571    4.28494984196918
H         0.96154928950902    5.47374787584578   10.76190447690599
H        -0.15069929310543    4.30823450575387   12.62584671218364
H        -0.54166302020213    1.87855682851832   12.50984843762972
H         0.17042014010302    0.60448392758552   10.51995834027241
H         1.26846837919768    1.76276005086442    8.63344701277915
H         1.95558749247694    7.20219179413867    9.38527692487964
H         0.54833512505627    9.15848015036662    8.89631297645807
H        -1.12222497311420    9.06687387977771    7.08766476166032
H        -1.39627322520934    6.99945681363399    5.76294022428150
H        -0.01004480689833    5.01939915347857    6.26091259084257
H         3.84969905128800    6.40577572275017    7.15551823983646
H         5.95187621270528    7.37245279300284    8.00078429533444
H         6.83338157292806    6.67390130640089   10.20009792363373
H         5.61776696359628    4.99322761791285   11.53275007583159
H         3.52782612201733    4.01331181295047   10.68163464110797

