43
CSD_code = FAVHOB | q = 0 | S = 0 | Stoichiometry = C17H18N3O4V | MND = 5
C         5.12221333121227   10.84750544390868    6.18170998774295
C         4.68164131376324    9.58746107926337    5.74492669878811
H         5.20942989848903    9.12625259080648    4.92218322596121
C         3.62698827689304    8.95645670449153    6.36296551137138
H         3.30938838308292    7.98230612329511    6.02212444639422
C         2.97463453866038    9.56671647992157    7.43017533004064
H         2.15731814390244    9.06203035720612    7.92216353348747
C         3.37162072886885   10.81271630710070    7.85908972029678
H         2.86480860777193   11.26515966820210    8.69718817754741
C         4.43986814129985   11.48750575595438    7.25152584340208
C         4.84925742540549   12.80990467443439    7.66385778887775
C         8.21044808133315   16.07392843124249    7.55524516360570
C         9.41553483508928   16.37290271496140    6.91058367671003
H         9.76885149273562   15.68137780167336    6.15877774379126
C        10.13534033286822   17.50391630279779    7.21962690492488
H        11.06112175838604   17.71921271550764    6.70912486650481
C         9.66022422768225   18.36555865251800    8.20317824846244
H        10.21999237275889   19.25341370054118    8.45860040001417
C         8.48128187011059   18.09162585450532    8.85641190672801
H         8.11626045207547   18.76078394343321    9.62293670774819
C         7.72418660064290   16.95174376271687    8.55010636517123
C         9.70524941944798   11.72402190285484    4.48588436154705
H        10.33558557386099   12.62928708961865    4.39692289095426
H         9.61149662743830   11.27138239630477    3.48282394524208
C        10.34485977995957   10.73932728025686    5.46553439478517
H        11.35442014670506   10.48340657968165    5.15446563250585
H         9.73533269172249    9.83679254017907    5.51830370790615
H        10.36414777252717   11.20051371456400    6.45565269033271
C         3.96151187541276   13.62739262889196    8.56123192351167
H         4.16254036932290   14.68359685926766    8.39587932522578
H         4.17528834053200   13.39483809972241    9.60413495224902
H         2.91355376418001   13.42450818536774    8.36092167335429
C         7.53539574781573   14.83166058760812    7.18423630863613
N         5.98422284297842   13.29304371378391    7.25793365141335
N         6.35684368925501   14.51675953268691    7.67525751156211
O         6.12821008939615   11.42850456701908    5.59313365960471
O         8.10049298046738   14.03190877420243    6.35246963060987
N         6.53696192797173   16.73507832416341    9.17190336358525
H         6.34975868631406   17.23229410233338   10.02547927260194
H         6.12387154910029   15.82390161023835    9.02105884482700
O         8.47257888780826   12.10587767339122    4.92646443877510
O         7.94697314900212   11.62227699843777    7.47753605821916
V         7.47399327574712   12.30854777494825    6.20046951498100

