65
CSD_code = FAVSIH | q = 0 | S = 0 | Stoichiometry = C22H34CdN4O4 | MND = 6
Cd       -1.57701655609423    5.47263944013956    2.77639855041381
O        -1.62707679396910    4.04950006893777    4.43371533190492
O        -3.46491909630100    5.05264885090106    3.79132043430020
N        -0.97315252287909    6.96079639494937    4.35719691663763
N         0.97305289756734    5.78615786996166    4.72476404914785
H         0.87725287365298    5.46461338869068    3.76712769684430
H         1.47776662194048    5.18026410195085    5.35010888453266
C        -2.84962134340903    4.27044067933743    4.55759383269687
C        -3.62307432548330    3.62975088921585    5.71600902449606
C        -4.99737853172125    3.17897553711947    5.22131279978288
H        -5.51779152383642    4.01498615431524    4.76104262569024
H        -5.59196092090815    2.80265265220123    6.05188689206005
H        -4.89187405582154    2.38936383631493    4.48045589104002
C        -3.78046210002725    4.72829870771969    6.77495950607122
H        -2.80374899816902    5.05424132539019    7.12799328876683
H        -4.35389461347599    4.35379360483021    7.62150163186257
H        -4.29638436311482    5.58593968194660    6.34873062972058
C        -2.84268529818305    2.45121816175749    6.29174450451059
H        -2.71602534429220    1.67779810104209    5.53815722486698
H        -3.37266024424883    2.03024097716220    7.14429522181702
H        -1.85545482267893    2.77519810817610    6.61084867592241
C        -1.95480388046304    7.73664607982289    4.82254556678475
H        -2.65076944330309    8.10125005799897    4.07628699117823
C        -2.09987434921869    8.06531329476371    6.14915020057020
H        -2.91445166490385    8.69256876871462    6.47435145698419
C        -1.18541369794454    7.55382696112787    7.07978461097752
C        -0.16219357519789    6.76513463013092    6.60455359077789
H         0.57299616813872    6.34666306714609    7.27621520091482
C        -0.07254408009339    6.48278192121963    5.22842367961280
C        -1.33578528446519    7.86232054692186    8.53510301882022
H        -1.29904885247021    8.93877927601945    8.69562679184302
H        -0.54888715817440    7.39294174079803    9.11950790256971
H        -2.30077105643651    7.50679391948592    8.89374341614597
O        -1.52857941545422    4.05043065154619    1.11744787383589
O         0.31001707150372    5.05256490504622    1.75915959617308
N        -2.18037225380716    6.96271774098072    1.19699062483283
N        -4.12423387177883    5.78559875838306    0.82473992509370
H        -4.03095236715225    5.46593434615512    1.78328453672323
H        -4.62486772974881    5.17674108241913    0.19894702090457
C        -0.30608064930895    4.27120135723928    0.99269884335053
C         0.46562970536879    3.63209262740514   -0.16780602989086
C         1.84503417511714    3.19030212461842    0.32058017427413
H         2.36310969680875    4.03031990319137    0.77615478081005
H         2.43728698472569    2.81544311401572   -0.51230623331948
H         1.74803079947176    2.40186875972055    1.06380902214143
C         0.61140910711026    4.72908375319904   -1.23007572847259
H        -0.36885767654554    5.04680491569316   -1.58060010955773
H         1.18478836000326    4.35660713508925   -2.07755698992981
H         1.12243917807948    5.59161960674379   -0.80782812258597
C        -0.31103081344320    2.44805199520222   -0.73725692457201
H        -0.42729319549631    1.67424598571569    0.01765082938516
H         0.21562184393183    2.02996807938026   -1.59332780565112
H        -1.30258044244749    2.76548055374260   -1.04951368675616
C        -1.19805848396649    7.73897434851575    0.73368656417888
H        -0.50551419098400    8.10629141772063    1.48182153001385
C        -1.04831880605427    8.06489467401220   -0.59306189158647
H        -0.23338213412542    8.69260853529583   -0.91649892966259
C        -1.95823140019435    7.54971285584270   -1.52612689872550
C        -2.98258087876501    6.76121570839512   -1.05301157781409
H        -3.71455484665640    6.34012133800357   -1.72656265650481
C        -3.07730048404252    6.48204414344647    0.32340877366963
C        -1.80131636301334    7.85321643826389   -2.98180551692572
H        -1.82879456046440    8.92940593692851   -3.14569406199001
H        -2.59000646986433    7.38817207466447   -3.56726382811226
H        -0.83810395279296    7.48872633717096   -3.33633914361163

