50
CSD_code = FAVSEC | q = 0 | S = 0 | Stoichiometry = C18H24Cl3N2NbO2 | MND = 6
Nb        1.73349563867627    6.78363659693960    2.66050513848215
Cl        3.29646446087680    7.59916149233798    1.14771082953523
Cl        2.68618085407790    4.69918766578824    3.08526877950826
Cl       -0.48182098013197    6.18888646965160    3.13662739102440
O         0.90401724643990    5.87679763785693    0.42697913985902
O         0.31868332879610    8.57820742178273    1.30917976135915
N         2.13532007667588    7.68445579775521    4.13767274523507
N         2.37716348537943    8.31745275773101    5.24876819700492
C         1.72782195642044    4.93823888771395   -0.23288328647436
H         1.19803004928278    4.49881960596215   -1.08642883565819
H         1.96426426159856    4.15806603348077    0.49177412893060
H         2.65608448242557    5.40717627701831   -0.58244105746363
C         0.49177638385282    6.92722230716133   -0.42376870239728
H        -0.04970323246011    6.51010719290448   -1.28630905515492
H         1.36873265634720    7.48919746694593   -0.78065188636589
C        -0.43338718103124    7.86885853630678    0.33987457895647
H        -0.88635423093023    8.58372197258535   -0.36312738879824
H        -1.22535759352739    7.28595846300468    0.83329456681075
C        -0.48102246607836    9.44347393935287    2.09283058915169
H        -0.98676792559798   10.17430264710972    1.45046492141007
H         0.19582062235450    9.95335709918668    2.77875336054220
H        -1.22342260330278    8.87612015374525    2.66656832011388
C         3.35260631574599    9.33177451587353    5.25992044272916
C         4.09860099538541    9.61276867365859    6.40239733032970
H         3.93087826198244    9.05061847331589    7.30801970195727
C         5.06632096030181   10.59765431755930    6.36678620844070
H         5.63936092322371   10.80608941838648    7.25880216192844
C         5.32661755950883   11.31328423328813    5.20404138794061
C         4.59050767317446   11.00971801988901    4.06394305489041
H         4.78440838904825   11.54719578194105    3.14718835837884
C         3.61454975626052   10.03381426136390    4.08329413174271
H         3.04660184042951    9.80187564036256    3.18912326390535
C         1.64909494364288    7.94373857525621    6.39851923805690
C         1.29824129108101    8.88028152135318    7.36813039709736
H         1.59417565204309    9.91214786351668    7.25459866008347
C         0.56049192207541    8.48687031296631    8.46725071203058
H         0.29475139157120    9.21975376679240    9.21556804903711
C         0.14345938243640    7.16947073130250    8.62265065552831
C         0.48014111846730    6.24953530747354    7.63659914108420
H         0.15976681902233    5.22274311084155    7.73419837696944
C         1.22280300600075    6.62377748596287    6.53410508225530
H         1.48631057312387    5.89869104605374    5.77220597585847
C         6.39679184076072   12.36110894922456    5.16755937564306
H         7.32917477545920   11.92783783572346    4.80417748091607
H         6.57779977738138   12.76734850490917    6.15971874433964
H         6.12199130511885   13.17241638975804    4.49726016955391
C        -0.67362955161205    6.76454601473917    9.81136349535709
H        -1.71963044902242    7.02873697873633    9.65280576228186
H        -0.33206444497411    7.27678979380587   10.70834886272195
H        -0.61674131764456    5.69130605349099    9.97386154321413

