63
CSD_code = FAVTUR | q = 0 | S = 0 | Stoichiometry = C26H29CdO2PS4 | MND = 5
Cd       -0.56939191528298    1.47096919663145    5.31281138897048
S        -0.55752086122426   -1.16668297952991    5.32444166027102
S         0.34547484789162    0.47564134031476    3.03470712763341
C        -0.05034637165667   -1.01629779292801    3.72343469806890
O         0.00649053479408   -2.14655443075972    3.06031624237064
C         0.45472386115149   -2.17985061336041    1.69687132338671
C        -0.10986378670168   -3.45852825179059    1.09581591101260
C         1.97824394807172   -2.14879124234765    1.64705012006840
S        -0.60729858207294    4.09130941456414    5.59562824241425
S        -1.13926038703381    2.18781724700560    7.79628139442315
C        -1.14625270909455    3.75090304691753    7.15946457089297
O        -1.54398300789134    4.79871973825551    7.84113613402007
C        -2.05197222917446    4.65323418344381    9.17599479449388
C        -3.52196330991302    4.25109376420095    9.12252403010297
C        -1.84448641824721    5.99424625038677    9.86425033901239
P        -3.14455428910603    1.36997809346661    4.41058778197014
C        -3.99597441726762    2.56841055658762    3.33222737412603
C        -5.20776002131908    2.25025576699014    2.72260757356007
C        -5.83007489273010    3.17681990036652    1.90784027323076
C        -5.24962007452864    4.41834534493560    1.69481262080955
C        -4.04359326532867    4.73485701834402    2.29717259723166
C        -3.41350434955339    3.81201617743287    3.11481739511910
C        -4.20675124394965    1.27156696815851    5.88579346208440
C        -5.31351862608743    2.08945412015413    6.08341869989841
C        -6.02772265503250    2.00719145034060    7.26663081860841
C        -5.64025571510014    1.11972319464246    8.25658637223628
C        -4.52813724150414    0.31285776721169    8.06923978549108
C        -3.80620380554334    0.39227868262179    6.89335002047123
C        -3.47779998120803   -0.17969779484447    3.50750361754247
C        -3.00107892868618   -0.23280805459790    2.19814206827457
C        -3.16127029222421   -1.38031004888129    1.44711010261798
C        -3.78432416638484   -2.48821912867047    2.00146682520098
C        -4.24950730477185   -2.44117831860463    3.30422274811243
C        -4.09947960643176   -1.29140589461440    4.06052332928695
H         0.04777310627900   -1.29753093544947    1.18459794371660
H         0.14418041022538   -3.51271329327746    0.04136366051487
H        -1.19032381059152   -3.47615524193247    1.20768008090836
H         0.30615585401956   -4.32124749958081    1.60911830006175
H         2.31130707799611   -2.20960277659918    0.61524811828899
H         2.38370063802435   -2.98957185939699    2.20495652870164
H         2.35233753500123   -1.22402962518540    2.07943465823080
H        -1.47254017151280    3.86785437666070    9.67937621476840
H        -3.91273460337894    4.15994701773487   10.13148238231416
H        -3.63455148791618    3.29448063147812    8.61706095783754
H        -4.09259862106207    5.00344510950760    8.58317952000226
H        -2.18743957990184    5.93590412994429   10.89286176333501
H        -2.40271489062373    6.76711281370406    9.34270051488775
H        -0.79113077826869    6.26108861128566    9.85571157545523
H        -5.65421061396039    1.27923986674430    2.88959561404721
H        -6.77024802221235    2.93106863390096    1.43592820701207
H        -5.73914491736936    5.13756857097806    1.05489900209728
H        -3.58962713745997    5.69980307858064    2.12838807550276
H        -2.46758269842887    4.05045231989282    3.58577448416428
H        -5.61155988916244    2.79298633031915    5.31909862040413
H        -6.88631463756840    2.64498079133590    7.41775507519365
H        -6.19792664692834    1.06437174119579    9.17962589038941
H        -4.21452718582792   -0.36838159155840    8.84578387105931
H        -2.92114779021731   -0.22023299540941    6.75257392247355
H        -2.50381194829097    0.63383942080966    1.77867290222008
H        -2.79738365935563   -1.41335259490972    0.43015322457756
H        -3.90734024656723   -3.38867911571033    1.41717780864145
H        -4.73097227609692   -3.30544045829802    3.73733844068978
H        -4.46518574618376   -1.26177012868671    5.07668119706942

