80
CSD_code = FAVTOL | q = 1 | S = 0 | Stoichiometry = C44H30MnN4O(1+) | MND = 5
Mn        3.49204247189545    6.08866254015611    3.82668468965614
O         2.54148337399333    6.32183245440057    1.82965055465699
N         4.41838336666482    7.82226901871950    3.76134996464668
N         2.00547720212088    6.94588692494190    4.81889604410536
N         2.69436483894863    4.30384976644684    4.15322824202593
N         5.10631499130878    5.17732713942301    3.10733201390659
C         5.72883653413877    8.05725161543086    3.43460979949713
C         5.99005807289784    9.46649134428871    3.40878308050698
C         4.82133496777513   10.08780036191731    3.69198186030057
C         3.85066885719286    9.05914064531094    3.92159503543500
C         2.56642108547951    9.30155566217534    4.41231017660457
C         1.72981638053259    8.28713110558337    4.88141565746011
C         0.50995556592193    8.51177093241185    5.59716460287895
C         0.07001832959520    7.30004344693444    6.01173311002786
C         0.98304689929018    6.32619431482844    5.49144184424697
C         0.79186645949004    4.94752827256679    5.58332423825337
C         1.59653789580926    4.01573436058586    4.92533595772764
C         1.28333942377876    2.62039117508281    4.84164643854454
C         2.18168003126095    2.06366927258878    3.99523024767670
C         3.06323560295611    3.11222100810203    3.58004766122189
C         4.22766839264243    2.89902082111365    2.83966563550073
C         5.20714318126452    3.87892672400446    2.67167037486758
C         6.50701702746325    3.63669785457885    2.12381581420131
C         7.21422024842493    4.78170049248053    2.27413608487756
C         6.32854935134270    5.74741012654258    2.85263293875027
C         6.65300129618924    7.09295615208242    3.03112179692793
C         8.01613819139179    7.54706887206292    2.69090846255989
C         8.50260255303318    7.45092878397562    1.39000592840051
C         9.78177227486418    7.88311519055247    1.09062802568909
C        10.59072130724006    8.40688347305975    2.08566118872117
C        10.11206304266843    8.50663965810735    3.38184437393047
C         8.82907563857018    8.08861361930046    3.68385762287497
C         2.13409661563105   10.70658713488045    4.53798170846023
C         1.97928286251160   11.48425492046689    3.39272452648940
C         1.57008410049239   12.80100015833899    3.49526087458499
C         1.33019222872422   13.36117495396997    4.73946665483248
C         1.49897701538810   12.59797467195049    5.88311171910960
C         1.89445607911628   11.27628447492715    5.78576226103404
C        -0.37075381290919    4.43978356122662    6.33909805483316
C        -1.67152238320099    4.73805055192961    5.94282177709169
C        -2.74789425102497    4.25174204033151    6.66239336744752
C        -2.53812821056396    3.47203754701624    7.78792142918691
C        -1.24609401859810    3.17156003392618    8.18731551280157
C        -0.16659941586117    3.64362198478770    7.46353620104682
C         4.47348101580601    1.53901193009399    2.32125045858206
C         3.62397771964810    0.99980527641084    1.35836788945290
C         3.84758657262368   -0.27243578740498    0.86492882452775
C         4.90833892215809   -1.02665209653089    1.33917541757000
C         5.74698427024247   -0.50273274117663    2.30921705908137
C         5.53567349018046    0.77425022602066    2.79625506355727
H         1.64919518845681    5.96819623684384    1.70874331209802
H         3.05938834133961    6.07191800626057    1.05160652829186
H         6.93897039631060    9.91029905434468    3.18417738063757
H         4.63094924321980   11.13961657665626    3.76503291512102
H         0.06265569503066    9.47018251637698    5.76690158573411
H        -0.79230383883153    7.07806034033180    6.60727017645494
H         0.47236171842004    2.14289141409043    5.35347657426850
H         2.26291813319317    1.03829913656066    3.69566236814413
H         6.83284940065797    2.70994447615557    1.69682332574243
H         8.23769359941189    4.96408372742513    2.01603358458331
H         7.86611672792595    7.05636799207134    0.61123930937110
H        10.14714212677711    7.81131246680666    0.07754359686174
H        11.58978958952940    8.73970222826935    1.85084379486638
H        10.73866621906156    8.91370350938435    4.16063720447510
H         8.45557587168684    8.16137668333949    4.69467548162921
H         2.16506747290343   11.04404915337572    2.42389628088080
H         1.44140039057430   13.39220028083368    2.60144895111451
H         1.01767299868657   14.39085954647983    4.81786714469568
H         1.32433376820226   13.03326625315060    6.85518020129994
H         2.04570325467839   10.68696038700658    6.67823047406379
H        -1.83503475223098    5.33526859497342    5.05738726649586
H        -3.75277983550297    4.48217111170574    6.34285615775374
H        -3.37910688337878    3.09716161956105    8.35028649632228
H        -1.07745066249347    2.56537236913451    9.06420710123461
H         0.84166247494712    3.41421748613657    7.77548663192280
H         2.79662635371528    1.58854539651912    0.98890218782467
H         3.18986083428330   -0.67700432649662    0.11081178314632
H         5.07756044738761   -2.02156797927672    0.95779265255825
H         6.56797369577312   -1.09068541177995    2.69012682188937
H         6.17744837375213    1.17589918284045    3.56645444414502

