55
CSD_code = FAVXEG | q = 0 | S = 0 | Stoichiometry = C29H20MoO3P2 | MND = 8
Mo        3.22646002248324    3.64017563694637   11.09886561687995
C         3.15247249631479    4.29405604903862    9.29037054625545
O         3.08130865161756    4.70620831275090    8.22239886944267
C         5.12614770859585    3.60702622586624   10.85159904213234
O         6.27369700314913    3.57882311896721   10.76188540156164
C         3.28231208963054    1.93597851988332   10.21503986110372
O         3.27959199892640    0.92229665358388    9.67174292964719
P         3.21282308130596    5.20086767651624   13.12154008543206
C         2.87222822053122    3.44943946591766   13.38873493374422
C         1.63740044123636    3.03708735698684   12.79094247769381
C         0.93804221832090    1.82587792496100   12.95455749048416
H         1.34995978676050    1.05285508672632   13.59771732067805
C        -0.26663668194037    1.65577654817013   12.32210512989076
H        -0.80898786184807    0.72986802351679   12.44470354662346
C        -0.81171399659782    2.66817362227157   11.51770382306288
H        -1.75742973907057    2.49630129420035   11.02642538168997
C        -0.16501037736131    3.86800083673673   11.35525580760410
H        -0.60155720632706    4.66046808742762   10.76090323997471
C         1.06282469825164    4.08846824954963   12.00683209020764
C         1.85652402105074    5.27540214838725   12.03370790896464
H         1.52797935229299    6.20270665691133   11.57423518283878
P         3.77679765770907    2.54882437077527   14.58267380737507
C         2.69578393949011    2.00160079389082   15.92994457486251
C         1.71070585161382    2.89158896462469   16.35244894436714
H         1.63401658710913    3.86343103518412   15.87879812548725
C         0.84309232131804    2.52543628356216   17.36328558611653
H         0.08027745937586    3.21364688246085   17.69508066734303
C         0.94984938986765    1.27057126652379   17.94414042505138
H         0.26778547133667    0.98263163405211   18.72979559313500
C         1.92273879726950    0.38168445148199   17.51541962379367
H         1.99752753271387   -0.59664631751311   17.96609254412052
C         2.79906994276704    0.74125578927306   16.50665565251592
H         3.55715181584354    0.05069121452103   16.16352451705770
C         5.01065508089292    3.67480215429347   15.25467713623409
C         4.93438736647435    4.18686777436050   16.54386882935278
H         4.13696239699005    3.87709244533738   17.20578094968834
C         5.88880027385681    5.09454523509390   16.96935487829207
H         5.83571528579258    5.49692321553667   17.97009682605628
C         6.90489064000862    5.48972198434142   16.11421889638125
H         7.64243394352766    6.20238637038004   16.45161928968902
C         6.97892696416605    4.97565214004366   14.82840261617746
H         7.76923686826944    5.28550447593778   14.16215121999088
C         6.03527375965670    4.06457472416296   14.39354279828251
H         6.08546526038353    3.65087314701763   13.39446446647611
C         4.69318565547221    1.10554599164791   13.98847386384979
C         5.82548473493019    0.69241626674981   14.68783820503952
H         6.13873990921984    1.23168753175714   15.57285293376977
C         6.54317972000429   -0.39888149437675   14.23603429893922
H         7.42546037442276   -0.71909781621062   14.77016125901124
C         6.13710919333725   -1.07391419748049   13.09441052447277
H         6.70851908423317   -1.91842918170123   12.73983640411296
C         5.00601797389418   -0.66671328128238   12.40590540627458
H         4.69030228116927   -1.18718922509455   11.51511602376191
C         4.27902192559219    0.42228930425799   12.85259967027081
H         3.40129861347741    0.74986857104924   12.31446675677897

