67
CSD_code = FAVYAE | q = 0 | S = 0 | Stoichiometry = C35H21F4IrN4O2 | MND = 6
Ir       -1.48057864199707   -0.89257842342957    4.25999102773189
C        -0.21640172242978   -3.29973734860286    3.16777087584676
H        -0.10711914015138   -3.49890993057996    4.22458561146974
C         0.25774731852356   -4.16426900936580    2.22601118325124
H         0.71558107148745   -5.09704124667011    2.51536994424920
C         0.20967347046271   -3.79598335719269    0.86511745570150
C        -0.39395135684100   -2.55313446580429    0.52625078366755
C        -1.03294554628039   -1.81847524379465    1.56574315541028
C        -0.24929582696425   -2.09098355460402   -0.79923538402502
H        -0.55441152523332   -1.08929972086375   -1.04768656984142
C         0.34738549276338   -2.87090197577362   -1.75270707874246
H         0.45917914880817   -2.49762635902085   -2.75963320790685
C         0.83617553028398   -4.14608796351880   -1.43537949308004
H         1.28392327858926   -4.75356713396740   -2.20750085929779
C         0.79001202131427   -4.58970519462736   -0.14312940415891
H         1.21994907806495   -5.54154517144897    0.13204334969008
C        -1.86990302643008   -0.63271939644980    1.40694494551687
C        -2.52948135644948   -0.26180490784573    0.23367264706931
H        -2.52295533398112   -0.87813644459015   -0.64953704363333
C        -3.27193785111455    0.90029433978661    0.22488609570146
C        -3.39459564647934    1.70712895349708    1.34218875594128
H        -3.96437144845609    2.62162024750786    1.31440121674840
C        -2.79453254724700    1.26839158368454    2.50855956002866
C        -2.05008287384455    0.09980875185418    2.60515003302591
C        -3.20395392544414    0.45732564136869    6.29866290058444
H        -4.01974740114860    0.07826724857688    5.69976652603027
C        -3.43530471824764    1.02591370840389    7.51659818392596
H        -4.43990053350957    1.12912653899845    7.89573973659258
C        -2.33826682797706    1.42453562223994    8.30852864321376
C        -1.03631210121930    1.31316734436578    7.74851387090777
C        -0.92783495852363    0.89593043453098    6.39147263437123
C         0.07156882298825    1.53404059586610    8.59386089691370
H         1.06301693316042    1.31355105379222    8.23525668695426
C        -0.10788659188233    1.94963825759111    9.88559639086026
H         0.74818131125140    2.10300068299416   10.52537309335112
C        -1.39532314237572    2.16299197358251   10.39865922902161
H        -1.51336056567309    2.51170460047033   11.41373643554333
C        -2.49157095766652    1.88412038398331    9.63064336627403
H        -3.48966803675938    1.98611611450248   10.03077767508346
C         0.26960208421197    0.98019902114339    5.56203206356589
C         1.31785867070313    1.87263328042910    5.79326583324964
H         1.29899205280411    2.58200818892101    6.60374560682148
C         2.38085723875952    1.88876977964563    4.91616790050548
C         2.43251489335190    1.06016138510450    3.81010966578035
H         3.27119688986859    1.07906709659488    3.13331735207338
C         1.34722235262671    0.23396627873256    3.58110559273812
C         0.23218916961227    0.16679964108160    4.40666018709187
C        -4.47582466748026   -2.20642475503935    3.79661875402923
H        -4.73772472437723   -1.65032178643486    2.91861679130078
C        -5.19189177628429   -3.14595380655388    4.48151534482854
H        -6.16863582353725   -3.55051029994580    4.31132805655483
C        -3.26077460836414   -2.85563981902091    5.45453791967238
C        -2.04390581200997   -2.93265972459071    6.36940396594784
C        -4.76603966719057   -4.53107053011958    6.51342906965247
H        -3.93835922719729   -4.60949991854823    7.21965491687488
H        -4.93906219772468   -5.49722323838863    6.03636440973446
H        -5.67275903620788   -4.22704396475979    7.03873795580086
F        -3.91226314520520    1.25686170239865   -0.91056180502342
F        -2.97650963536926    2.02842492875249    3.61700655746024
F         3.39901275445474    2.74919166399012    5.13554368469900
F         1.39711093647282   -0.52980717888422    2.45873287823255
N        -0.86072850122310   -2.16284644443605    2.84785659844364
N        -1.97881719742712    0.37680193522851    5.75035690772590
N        -3.28087851113350   -2.03748645770921    4.41199640879618
N        -4.41358198190367   -3.54761154114827    5.52624602492668
O        -1.08108360729781   -2.21838547304994    5.98658781369646
O        -2.08731679630125   -3.65716719283918    7.35485967483093

