55
CSD_code = FAVZUY | q = 0 | S = 0 | Stoichiometry = C24H25N2NiPS2 | MND = 4
Ni        1.80010881187175    0.41173160586695    8.98210781029014
S         2.55599676299986    1.94099664424288   10.46035828974359
S         3.90806799341372    0.50999540608409    8.32618141999070
C         3.53487760611034    2.00466185646839    9.07211295114279
N         4.02322614979947    3.15769806666777    8.60887997970763
C         3.68363697976941    4.41333412503457    9.24681765447137
C         2.35759905125108    4.96617916836918    8.72986893844170
C         4.84149665125168    3.19946812599677    7.41431275089855
C         6.32211105313755    3.03708459179899    7.74482503557292
P        -0.20140313547650    0.43971378264595    9.83518369449756
C        -0.66946861661616    2.08874398562637   10.43757275285613
C        -0.57069631669209    2.47302652211401   11.76831251914820
C        -0.84053802281325    3.78298104846264   12.12534709461638
C        -1.19528490417361    4.71230760511548   11.16188373271964
C        -1.27627030668111    4.33636783996467    9.82961088903756
C        -1.00690812745060    3.03071174767648    9.46668313718305
C        -1.75547058470402   -0.23224970925524    9.16455599792309
C        -1.69637364599033   -1.49160214288628    8.57405447108557
C        -2.84926158676671   -2.09046329340953    8.10354256511231
C        -4.06706836496488   -1.43887584703461    8.22079154996893
C        -4.12909696220139   -0.18917431114303    8.81357782529570
C        -2.97847751677326    0.41621489412509    9.28827386233984
C        -0.00058999525716   -0.62267657272438   11.29745075652934
C        -1.00178747878331   -0.80001331701734   12.24607270994499
C        -0.77852125087742   -1.63887124309064   13.32256259259176
C         0.42978873974714   -2.30776551805490   13.44817159262011
C         1.42125989707492   -2.14875803847371   12.49304698773278
C         1.20430149304387   -1.30807224048016   11.41767852190413
C         1.42245597400163   -0.74636216547405    7.64484992458227
N         1.19775522462221   -1.45082157723761    6.76376532811281
H         3.61549147264643    4.24902392053476   10.32637339482446
H         4.49475969080658    5.11865516777031    9.05339462021999
H         2.39511330079685    5.11008805687415    7.65191098993628
H         2.14220974428153    5.91922340999009    9.20486904688991
H         1.54814646596540    4.27703788012337    8.96159377970706
H         4.66391723789314    4.15544605432494    6.91574686643649
H         4.52611007647076    2.39263717837140    6.74594305788051
H         6.65317258392826    3.81955360939474    8.42463191072041
H         6.91131054681737    3.09152669274568    6.83395067513363
H         6.49463301436178    2.07152110335169    8.21356108483278
H        -0.26991863042189    1.75445394124930   12.51709784984045
H        -0.76331827504037    4.08122232748224   13.16064478755075
H        -1.39806668637843    5.73431559993450   11.44613027654309
H        -1.53784489050877    5.06408237198158    9.07512552863147
H        -1.04744030460896    2.72419470782581    8.42754237624162
H        -0.73864360719511   -1.98399740516990    8.47609313680820
H        -2.79747077543660   -3.06416700742769    7.64065573823458
H        -4.96806586185082   -1.90433112324487    7.84955181789974
H        -5.07789210900504    0.31864869094730    8.90934406851377
H        -3.03610857127398    1.39099172412752    9.75167930087852
H        -1.94576835082866   -0.28410187342343   12.13516119624652
H        -1.54977184886840   -1.77509105594690   14.06658137185384
H         0.59629488245214   -2.96003098556680   14.29265542616505
H         2.35727846258115   -2.67833262906386   12.58821762309432
H         1.97400666772093   -1.17168158118427   10.64269076264459

