29
CSD_code = FAWGOZ | q = 0 | S = 0 | Stoichiometry = C15H10FeO3 | MND = 8
Fe        0.55406425058217    1.43771059725534    5.80277978431728
O        -1.33268469760028   -0.72127231783969    5.47138059152498
O         1.35737360441005    0.79133200764480    3.10027886702144
O         3.01820795482041    2.80132112725471    9.11436819773674
C        -0.60362583510973    0.14930770599138    5.61669067030201
C         1.06943205498257    1.07606425506648    4.17210821820794
C         1.20533732843551    2.65566522588195    7.58420655471914
C         1.50251026667373    3.45814784122911    6.45531967326358
C         0.28629341071009    3.75189431941449    5.79388777806815
C        -0.76783425054645    3.14890550325381    6.51033839985197
C        -0.20537652483144    2.42993570324457    7.59507421207937
C         2.13969956185547    2.13484005905039    8.60937927252068
C         1.83579421111256    0.72796554904405    8.97471463831353
C         1.59515715090931   -0.22206435230675    7.96067689588421
C         1.16396907249677   -1.49108259874365    8.35328421651002
C         1.01733820617507   -1.81827510632492    9.68712899206342
C         1.32645133414753   -0.89358120964778   10.67422643221742
C         1.74324910468646    0.37471070263814   10.31441750923345
C         1.88163095392204    0.06901971894036    6.54846365213901
H         2.47336529482406    3.85645962943491    6.21360678501267
H         0.17936180602339    4.40417713610242    4.94308060507276
H        -1.81994901216608    3.28665120800439    6.32385042254636
H        -0.75433723973955    1.98891521501577    8.41152062130477
H         0.95742497768646   -2.22885728706509    7.59154695467414
H         0.67848245430198   -2.80605809675343    9.96290446603837
H         1.23297330985597   -1.15794434643030   11.71655034667153
H         1.97068442398727    1.11771198113683   11.06470352540815
H         2.82594671037062    0.60935014802788    6.44044736373203
H         1.93826011702409   -0.85625031852004    5.97476435356495

