55
CSD_code = FAWHIV | q = 0 | S = 0 | Stoichiometry = C26H20Cl2N2O4Pd | MND = 4
Pd        1.94592419426563   -1.57732767018946    2.01513974302188
Cl        3.65915521255772   -0.30365092460504    2.59901547127292
Cl        3.16209793101982   -3.37172745024497    2.46726921994066
O        -3.17343794529524   -5.22732772372222   -0.85229569316891
O        -2.93887504433162   -3.31850072922888   -2.00440608185834
O        -2.12023967035693    4.01869202922795    1.20133483100270
N         0.74019329430680   -0.03558517422969    1.54372209124478
N         0.31123816094152   -2.61291699426619    1.47098860558853
O        -2.93273142190251    2.55186083893251    2.68689357614607
C         0.17560159149947   -3.93854176826294    1.48285716700501
H         1.05424496701989   -4.49803843124669    1.78669873361932
C        -1.00241166381930   -4.56630595415635    1.13081904344288
H        -1.06875647271314   -5.64251448865111    1.14040280981115
C        -2.10113957524127   -3.79209946457603    0.75949835948260
C        -1.95473944603408   -2.41563582112798    0.74010573926118
H        -2.78251970886257   -1.79661211676037    0.43815619699608
C        -0.73386938379356   -1.84364382216004    1.09350335929429
C        -0.47845741528730   -0.40356356462322    1.09056959504354
C        -1.40052180341892    0.54697349986194    0.65700335432224
H        -2.36685863131160    0.24286186648689    0.29111372606579
C        -1.07492232234734    1.89197408093289    0.70258142333446
C         0.18053193818852    2.24868419179467    1.19317547198514
H         0.46722136837509    3.28624752551376    1.26097505649664
C         1.05259545759590    1.25811527742072    1.59765866076738
H         2.04197406962121    1.48801995359855    1.97904724647425
C        -2.04544655238709    2.95352715234488    0.26164634482070
H        -1.71050005478599    3.42095264834423   -0.66855799076743
H        -3.04088926321055    2.51836826475673    0.12051970306433
C        -2.59277245272809    3.67870743382351    2.41768868600982
C        -2.64021497327024    4.82208477481749    3.35130257489544
C        -2.26551855580067    6.10641238857566    2.96278731465342
H        -1.93268207209323    6.28195675596735    1.95189265877172
C        -2.32593648224615    7.14336928777486    3.87453557058489
H        -2.03650847284545    8.13961651702576    3.57518342328674
C        -2.75644424042079    6.90804664363678    5.17126030860741
H        -2.80098412738862    7.72236175310822    5.87919078786677
C        -3.12937939791135    5.63120079621984    5.56135492788126
H        -3.46316277560876    5.45009440470398    6.57190370802842
C        -3.07270635543362    4.58967707218025    4.65569699730630
H        -3.35661883136676    3.58660259851997    4.93564528557678
C        -3.38201967538522   -4.45264380001251    0.32634396854802
H        -3.72919045122834   -5.16700642377899    1.07633081764180
H        -4.15366027313963   -3.69941870890908    0.13520462255743
C        -2.94460134214564   -4.52616248080266   -1.97902233669790
C        -2.70994181245103   -5.39492636885362   -3.15088801978646
C        -2.72485864585672   -6.78442226428106   -3.05203627182260
H        -2.91687193917994   -7.24888789269385   -2.09772407791185
C        -2.49408333021580   -7.55423532069805   -4.17644410637377
H        -2.50464689828261   -8.63132783459317   -4.10158271980443
C        -2.24815904500750   -6.94785080054453   -5.39872245411678
H        -2.06754185445310   -7.55475954190213   -6.27349704956882
C        -2.23256267774098   -5.56547762997294   -5.50072435414114
H        -2.04009177064132   -5.09550649840917   -6.45340054876269
C        -2.46230901711306   -4.78924953430743   -4.38144275624777
H        -2.45409434028708   -3.71114055771222   -4.43517272072740

