63
CSD_code = FAWJOD | q = 0 | S = 0 | Stoichiometry = C24H28F2N4NiO2Se2 | MND = 4
Ni       12.10120211715356    0.96009453932560   13.37719672306009
Se       12.65724305238833    1.30344949139293   15.50339617475432
Se       10.60272344938255   -0.59739566608745   13.95118853722811
F        17.04496558484487    4.00921799278865   13.66017940060577
F         9.61049527655306   -1.36630856889066    8.62882242671479
O        13.44136595818981    2.16072586375638   12.80916429669693
O        11.64952533002474    0.80002425382503   11.52809369993357
N        14.74986880782195    3.03207395611908   14.50885384542483
N        14.72717938294521    2.74013384545224   16.73784860663257
N        10.00705486047359   -0.76455861632949   11.15582092020014
N         8.33542620317197   -1.43559277150678   12.51415476990105
C        14.17829862509754    2.46148506682622   15.54972498653040
C        14.37731828546110    2.86325052686012   13.24927206293947
C        15.16665609005930    3.62297220018008   12.24090751135700
C        16.42968733367479    4.16112665271843   12.47380111305484
C        17.11566364742682    4.85016967744673   11.48889249010944
H        18.09362153533496    5.24651390222665   11.71405925515546
C        16.54132572081541    5.01379835916229   10.24106690748245
H        17.07438485908707    5.55337394005590    9.47300717011872
C        15.28860938313533    4.48079032396827    9.98149202196580
H        14.83843590984886    4.60204626949827    9.00793953791059
C        14.61475163608692    3.79324029852485   10.97081489293357
H        13.63750015622009    3.37341677006530   10.78284867715687
C        14.21311124220018    2.21099502701430   17.97919687127032
H        15.04091237489381    2.14995350740847   18.68976232593764
H        13.84041173749046    1.19698475236578   17.79234080125536
C        13.08381351631963    3.05465049194129   18.56494480883724
H        13.43486730638979    4.04890622665094   18.82671762455228
H        12.69628328020679    2.57494045438462   19.45889624742175
H        12.27716524461023    3.14191859900989   17.84067632540287
C        15.84219946955339    3.67137822806244   16.79220519796901
H        16.51909621367264    3.43807052771368   15.96930117638346
H        16.36085604342238    3.52023906681233   17.74053003312761
C        15.39817784041231    5.12510512572563   16.65999111600670
H        14.88935088869943    5.26216225768091   15.71085227333762
H        16.26966121570729    5.77315156443285   16.68366741114726
H        14.72714265580665    5.40967703391802   17.46595169323527
C         9.56039266091497   -0.92339158259978   12.38148726094613
C        11.05796089624259   -0.04013798670503   10.81233184843338
C        11.53349458634929   -0.19060001252566    9.41166355588297
C        10.82491443242719   -0.83359687302917    8.39993894893035
C        11.32918734867960   -0.93605695716146    7.11536053544236
H        10.74310876021551   -1.44047768187691    6.36283630734377
C        12.56666894436975   -0.39249818698815    6.82017513140983
H        12.96177159686469   -0.47383981276680    5.81891887297935
C        13.29157922010777    0.25372083576280    7.80893888987173
H        14.25768471921988    0.67921775205841    7.58351454621862
C        12.77732941329358    0.35158631537877    9.08605922189763
H        13.33261197599524    0.84902781382827    9.86769091316818
C         7.73781562165428   -1.74299865353447   13.79209045395726
H         8.08255685482497   -1.01069131073284   14.53008410123029
H         6.65422984011226   -1.65232809049496   13.68792285646122
C         8.11007062884076   -3.14486614801992   14.26586233378178
H         7.79750640612339   -3.89257498502290   13.54087467718421
H         7.63057621083527   -3.35422923089073   15.21739809897523
H         9.18827048535580   -3.20995153645467   14.39576339149245
C         7.54288823934146   -1.70946611030109   11.32887359254257
H         6.88203745266520   -2.55013577361496   11.55027516112249
H         8.22270371084466   -1.98426265654623   10.52218203784204
C         6.72998505161090   -0.48893763928185   10.90801115769928
H         6.06152489437433   -0.17064165185040   11.70535656114484
H         6.13922166410339   -0.72499825693548   10.02773741940416
H         7.40065614997504    0.33044724987580   10.66557219081623

