73
CSD_code = FAWLAR | q = 0 | S = 0 | Stoichiometry = C34H30N2O5PRe | MND = 6
Re        6.44997558920737    2.79442310620387    3.57878645992970
P         4.65957579005527    3.41054136588142    5.10894040317628
O         7.07227033882217    1.61938527869166    4.58636158971007
O         4.75644673970948    3.78934858636784    2.43494615100317
O         4.93166539875100    1.62581431748148    2.41984929667085
O         7.25185990521171    2.95833706104285    1.76412908444392
O         8.72018142552545    3.39563974646655    0.20183228178530
N         3.20242298874649    0.20032825156314    1.01677610020627
H         4.08775048648135    0.25656724038865    1.50490821578319
H         3.03803090706313   -0.60371670140572    0.43713033924609
N         7.45740584406378    4.38458536634659    4.05948493115319
H         7.17829946198296    4.96090740571265    4.85037438164995
C         4.34375688055522    2.66322369111966    2.00845162522723
C         3.17836973261149    2.60903323413824    1.12485726338890
C         2.66386381237478    1.38996175893069    0.63860187130476
C         1.52573253596005    1.42363324805568   -0.19692200848479
C         0.94811967220942    2.63402806096092   -0.51408069079485
H         0.07722309804253    2.64818586561537   -1.15439664571493
C         1.45886248184657    3.83503099225753   -0.03227256789645
H         0.98898207664318    4.76901993679567   -0.29913301526331
C         2.56682131392812    3.81578971656157    0.77914539955958
H         2.99153600619885    4.73018720163698    1.16412648863152
C         0.95450245570553    0.13908958234528   -0.72437064540958
H         1.67191005015176   -0.37012204366385   -1.36948453980744
H         0.05847045495542    0.33455026654576   -1.30697442873739
H         0.69523952571021   -0.53220419263866    0.09406930424164
C         8.34257930139135    3.52005091029544    1.35388677410462
C         9.12976824211325    4.38895558247380    2.29723589794497
C         8.65315036041359    4.82378044448408    3.54923163655832
C         9.41907265892030    5.75935290533312    4.28354217069420
C        10.63209495938835    6.19126574430091    3.78123258185082
H        11.21837354655561    6.89427884015584    4.35625287362133
C        11.11001341566987    5.74053101262491    2.55960467942892
H        12.06378962587362    6.08458158259458    2.18983898801881
C        10.34940776077222    4.85932662116118    1.82132862739488
H        10.67278989770289    4.51122776842096    0.85204667233836
C         8.93264605549599    6.26841453337292    5.61207220906619
H         8.78022846848466    5.44647420976123    6.31178641391313
H         7.99180891618068    6.81282299264952    5.50923361572339
H         9.66691743855876    6.94685750659923    6.03889198754139
C         4.77192055182594    2.65716868970521    6.76326077375471
C         6.02755210145306    2.39812420410055    7.30293732276076
H         6.90711178654896    2.58796047430764    6.70122269595281
C         6.13557784181045    1.86867130709751    8.57647395340477
H         7.11020119044619    1.66234019616313    8.99164146734959
C         4.99490082915988    1.59487224522073    9.31487703257250
H         5.08016975163866    1.17601554680570   10.30636170666473
C         3.74323327106226    1.85061493861214    8.77890081576912
H         2.85372588972783    1.63394410698120    9.35176921263341
C         3.62765482777428    2.38340617132024    7.50713378562517
H         2.65079226924086    2.58560771349288    7.08994566271009
C         3.01210973795913    2.92299069415749    4.53273323943086
C         2.77410998955067    1.55637388708525    4.39259354042257
H         3.54134429703458    0.85453923183952    4.69306414775968
C         1.58203908481069    1.11820232556187    3.84942149448697
H         1.40363165523965    0.06087005258775    3.72694711205972
C         0.62603511079093    2.03730762230449    3.44459812656528
H        -0.29798470867232    1.69566545112094    3.00339156597340
C         0.85672654474750    3.39418810177302    3.59548630325099
H         0.11132075763734    4.10760647040396    3.27787961824215
C         2.04989768766130    3.84280790588056    4.13500501408573
H         2.24038351300598    4.90170315064682    4.23716645597412
C         4.57876549367127    5.19654577137634    5.46212701283096
C         4.42776992694271    5.66769278343868    6.76356716094667
H         4.33640094362176    4.97176009378190    7.58410627795596
C         4.39745620868385    7.02960615792919    7.00923431673987
H         4.27990938088710    7.38684410138293    8.02142301983623
C         4.52157481792918    7.93116651224360    5.96521376503215
H         4.50190888012419    8.99255855263817    6.16222162494886
C         4.67572076424790    7.46783435096176    4.66793484218492
H         4.77696517901671    8.16780365020349    3.85199461001559
C         4.70769920376839    6.10860501736130    4.41443232102355
H         4.83635960064063    5.74401352390906    3.40661222782342

