62
CSD_code = FAWLIZ | q = 1 | S = 0 | Stoichiometry = C28H25N4O3PRe(1+) | MND = 6
Re        4.67187561196380    4.13383767202079    4.59461142472376
P         5.46413660427395    2.39397169627503    3.00407396405662
O         4.53165996535478    5.81500333698148    5.81922876439000
O         6.23975934439018    4.97771028343751    3.98105680840873
O         3.20295641474350    3.41774014679577    4.87143766860114
N         5.70842136844368    3.35884635916386    6.37288732419595
H         5.09497657317341    2.68183243775217    6.84251993584733
H         6.61738641718959    2.89294910323381    6.27451507753437
N         6.63079776462888    4.32648340559965    8.32287864121608
N         3.89463795740219    5.61428711510235    3.03630704256161
H         3.23027510392747    5.36457644014393    2.30134315223411
H         3.41286000191559    6.27044374107175    3.66415421423469
N         4.92541504977382    7.08948999236911    1.46527608265907
C         5.86835810450041    4.50793775303934    7.26830095992469
C         5.19698320626359    5.69559938529643    6.93570656747630
C         5.33642488355457    6.74447082811513    7.86346931267474
H         4.83050514040476    7.67916777677631    7.67859998489433
C         6.12094129243959    6.55060501656298    8.98219119260975
H         6.24181048410260    7.34302855367023    9.70321851962208
C         6.76323082905341    5.33245503126953    9.17204316683247
H         7.39807549121300    5.14470639026924   10.02403985207936
C         5.05270441460868    6.25670624745922    2.46682422646822
C         6.28782088908651    5.89806631890261    3.05080547891558
C         7.43096013682041    6.51857755314853    2.54122975595774
H         8.40060972245615    6.29307378818001    2.95805232824188
C         7.28186361401119    7.41620546017742    1.49807626715559
H         8.14301372953878    7.91476496102284    1.08395995407501
C         6.01782115236842    7.66377236836370    0.98259632681234
H         5.85868891961422    8.34567226305261    0.16174858457583
C         6.88217653044321    1.49638285380730    3.69792598093833
C         7.92898392167471    2.22722405380793    4.26584685682854
H         7.88887429542976    3.30920301195664    4.26475732959818
C         9.01580893113213    1.57351143306493    4.81633860653232
H         9.82505340935110    2.14229568214619    5.24905638932468
C         9.06500673964870    0.18717965184908    4.81306375956018
H         9.91313992807991   -0.32155572655152    5.24371287814683
C         8.02483833126547   -0.54143266591829    4.26077977708392
H         8.06088082290259   -1.61980886433792    4.26140826130022
C         6.93321330592492    0.10597069730486    3.70606612226614
H         6.12328184380108   -0.46731612514087    3.28047620022276
C         6.04108083099800    3.16892396364712    1.46927320571290
C         7.38334071531316    3.32841961999940    1.14746912872834
H         8.15036203694425    2.92000193405201    1.78919844892851
C         7.73493685274201    4.00439007602176   -0.00915823600614
H         8.77759020145112    4.12437074590047   -0.26088628564429
C         6.75702027459421    4.52141186148823   -0.84198224866501
H         7.03806447721667    5.04857136820432   -1.74021851526107
C         5.41578753348457    4.35290518409630   -0.52990842833074
H         4.65405665676494    4.74649999579991   -1.18487592145324
C         5.05758477300116    3.68191477168429    0.62244693674111
H         4.01536206312370    3.53011555367206    0.87440668235635
C         4.29271976933100    1.12988273417261    2.44674931745297
C         4.56257522581580    0.40398545730946    1.28716342777919
H         5.45321913811285    0.61586846784283    0.71143025944737
C         3.68471070374454   -0.58360030479124    0.88066828636919
H         3.89052452104375   -1.14677864973429   -0.01668986357809
C         2.54307023857055   -0.84920293339580    1.62217960808140
H         1.86107489390204   -1.62029843168253    1.29897013205206
C         2.27372733285280   -0.12515624124679    2.77286328273635
H         1.38260204236747   -0.33012383086278    3.34538636863459
C         3.14683509391153    0.86517512890527    3.18840497265849
H         2.94342637802853    1.45258810197948    4.07452470062938

