36
CSD_code = FAWNAT | q = 0 | S = 0 | Stoichiometry = C17H10BrN4O3Re | MND = 6
Re        8.99369594648120    9.95931863983341    7.72201721554477
Br        7.44686783080692    9.65803671581221    9.75386326552191
O         7.00537546263159   12.07312833974664    6.65844297794194
O        10.85767535004182   10.06892325343512    5.26363958413746
O        10.53554982696248   12.10146007755440    9.33075509558966
N         7.90494653190515    8.19995196727948    6.96388861449033
N        10.02655923452998    8.21544536297859    8.58911192427184
N         9.89873856696735    6.07291335893721    9.18852004444776
H         9.54284920526290    5.13802459128661    9.29134055362577
N         7.39031734227713    6.04999947176914    7.24378620342321
H         7.39811349971857    5.11442211866852    7.61241257939509
C         8.22516003264047    7.07276240722311    7.58176715981024
C         6.46696541121394    6.56434975481379    6.36466549561112
C         5.38709455406651    5.99662191432991    5.70797107677098
H         5.12678808633971    4.95848756875759    5.84529496703867
C         4.65991964803795    6.82300901364999    4.87560296321784
H         3.80826532845785    6.42145264867156    4.34824996137955
C         4.99516704701655    8.16882062062536    4.69755236312718
H         4.39314363875862    8.77193035532988    4.03580546950995
C         6.06737564832604    8.74146801372943    5.34514631191693
H         6.33153646522945    9.77847425512032    5.21352891040625
C         6.81062598654795    7.92484547123178    6.19301529493826
C         9.35450954064048    7.08205860659613    8.45190105328325
C        10.97878130664198    6.60365720293573    9.85316496332642
C        11.88860175228373    6.05458880705352   10.74221636542014
H        11.82630665840604    5.02080459951715   11.04511338508670
C        12.87227019539366    6.89394000492889   11.22426424595618
H        13.59836155567035    6.50731614236552   11.92281803919976
C        12.95325262826306    8.23421914157945   10.83389371433310
H        13.74187048928273    8.84792898462112   11.24075412234416
C        12.05388092109574    8.78844414381477    9.95022298524982
H        12.10949665952426    9.82116129169010    9.64555158664121
C        11.05053512423161    7.95882000798728    9.45699646522536
C         7.77933543761294   11.30925010797553    7.01975667012207
C        10.16662756262190   10.03505126557426    6.17984489367553
C         9.98563952411235   11.32491377257650    8.69212347801967

