121
CSD_code = FAWNOI | q = 0 | S = 0 | Stoichiometry = C50H65BrNO2PPd | MND = 4
Br        0.58875152326504    8.66205446874263   11.04726530799724
Pd        2.76440782015812    7.96120172567931   10.27766862533441
P         4.85248023692899    7.32066163032752    9.38851591053903
C         5.16670129354668    7.62167018802146    7.51336844429591
C         6.11504092490092    6.67192470723175    6.78095968091848
H         5.78814445718817    5.63833039605053    6.88295600762874
H         7.11850596390570    6.76130445733586    7.18598029376547
C         5.65266825861938    9.05668161054864    7.29691131564031
H         4.97076294991191    9.74647921672180    7.79035126419174
H         6.64738190671366    9.19163702981948    7.72198083053326
C         3.77250040383233    7.49874166183518    6.88826640534287
H         3.38163855074047    6.48821832398236    7.03510062247320
H         3.10080728757384    8.20208941477344    7.39386674504030
C         6.15301942900285    7.01131468930817    5.28719130899608
H         6.83960244371354    6.31549648021787    4.78985441393842
C         6.65030772756248    8.44092579726495    5.09365863581289
H         7.65710219252161    8.54513458682189    5.50586217583569
H         6.69757415312969    8.68103336520995    4.02910579065940
C         5.69407736294790    9.39352286103020    5.80507285481178
H         6.04657823972164   10.42514635048939    5.68578961962444
C         4.29732016276364    9.25872536815745    5.20274279281664
H         4.32470583083374    9.50487324641996    4.13894556229797
H         3.60963705995682    9.95496359769681    5.68775597576614
C         3.80923418933113    7.82529087784283    5.39676820810301
H         2.80044012159653    7.72004052917976    4.98227083348504
C         4.75745364924870    6.86306706918674    4.68655677845956
H         4.40523102243739    5.83570772462929    4.80620184668689
H         4.78489406140280    7.08431881440493    3.61733678510759
C         5.31463339519385    5.52327165658213    9.84359260005148
C         4.94180850959006    5.41434375767618   11.32405460120043
H         3.91896739468732    5.78364998840847   11.46594892653918
H         5.62367677983956    6.04071539046805   11.90634248237640
C         6.76385166173055    5.05602353841027    9.70978483502390
H         7.41059919577813    5.67440209816249   10.33249494880070
H         7.10905982917135    5.12275883221342    8.68091302640911
C         4.39755019152723    4.59307284170698    9.04121959642672
H         3.36065919620838    4.91939688314586    9.14598389633843
H         4.64816186461178    4.61812721510228    7.98074476934106
C         5.05531152568058    3.97370270242425   11.81817205513065
H         4.77036672176200    3.93184230037758   12.87590027164219
C         6.50056856566745    3.50693306219114   11.65943290985063
H         7.16498186626463    4.13066191057845   12.26322407406911
H         6.60301743512502    2.47656824407439   12.00692804976663
C         6.88799359500897    3.60344988074468   10.18582370484750
H         7.93026232624181    3.28581093108927   10.06152777801346
C         5.97946295631731    2.69688610874528    9.35920485160196
H         6.08899193417814    1.66104594387115    9.68773143536445
H         6.26284884851183    2.74405899569319    8.30485390477753
C         4.53227713062058    3.15188694488035    9.53286878639318
H         3.86968118306902    2.51239208969292    8.93874854908108
C         4.13753336845827    3.06592454403311   11.00426714835368
H         3.09773290035605    3.37161932228874   11.12632858845826
H         4.22677564694985    2.03540583065906   11.35514213163758
C         6.01614713876553    8.39974734095166   10.33410278709874
C         7.40613322086485    8.38850077890694   10.09741284311068
O         7.83464881031729    7.60115262955673    9.06996400340701
C         9.21576844452941    7.49626464061953    8.82477506143898
H         9.32291264196217    6.78697228002813    8.00475510143159
H         9.75337885928565    7.11266237291118    9.69753215506486
H         9.64631077458962    8.45736582168600    8.52474931617846
C         8.25905239554701    9.16660825511063   10.85600768498830
H         9.32395852162936    9.14611547767906   10.69174685626632
C         7.75741296392339   10.00693722508597   11.83643823201546
H         8.44733853487737   10.60685137566217   12.40712259962143
C         6.39518088717197   10.08352737967940   12.04774629152147
O         5.81018090393337   10.92601840394902   12.94865192083336
C         6.62430670508593   11.80601008643146   13.68083102284819
H         5.93931166664439   12.38934311004799   14.29407478394320
H         7.18551521711721   12.47992610567738   13.02486910060656
H         7.32308442932957   11.26958755609311   14.33201787753369
C         5.50888283001560    9.27004545857572   11.30269912882858
C         4.08305760894459    9.56804635862749   11.67139533449653
C         3.46673885038125   10.70378287842038   11.08678161822104
C         3.91717719654339   11.24476019679240    9.74986080121811
H         4.81862130623401   10.70012367177483    9.44868386098720
C         4.28790498134449   12.72638422367001    9.81721566934610
H         5.02391873899443   12.89298319014579   10.60106055387310
H         3.41987065951982   13.34630433519693   10.02379891801739
H         4.71384276899588   13.04532279074595    8.86754997935043
C         2.79965377115278   10.99330974813984    8.72968904239306
H         2.50138362667933    9.92891336943765    8.75636521997632
H         3.12061777136186   11.25164946025232    7.72153501071773
H         1.92141257416020   11.58719440704900    8.97407932637757
C         2.43695243596982   11.35981734951825   11.74306579670669
H         1.98453706774553   12.21753163706893   11.27191174482927
C         1.98006552693395   10.95369122502700   12.98560714028554
C         0.92036207758241   11.72253851814312   13.72931325336645
H         0.59709869162269   11.11462862273316   14.58075426947632
C         1.51995084256654   13.02555538992395   14.26718274858132
H         2.36677846830232   12.81599103774149   14.91815241382119
H         0.77400637735022   13.57781813666106   14.83441924127751
H         1.86515228509647   13.65263504836816   13.44798936427065
C        -0.30320147460574   12.00299274314256   12.85760190253760
H        -0.64236149379525   11.08357966177692   12.38754213835514
H        -0.07275063731460   12.72545054913663   12.07894352850974
H        -1.10916182554513   12.40700978806817   13.46592009466017
C         2.56075821523112    9.82920247023996   13.54863038818550
H         2.19901781113876    9.48328734566713   14.50524751698871
C         3.59827080414501    9.14564254315155   12.93426193788019
C         4.18844588638184    7.95494284074546   13.65277006334579
H         5.00761043792742    7.55722385395812   13.04609066947761
C         4.76831674289302    8.33662781009490   15.01468502399406
H         5.52611518139965    9.10761305059931   14.89910103381897
H         5.22525177156576    7.46549142563153   15.48071427283559
H         3.99645694594525    8.71497094127602   15.67948234363196
C         3.09770048584423    6.88646030711094   13.79530044224349
H         2.53650690540926    6.80637397236373   12.85558136465287
H         2.39047963729916    7.16112763311866   14.57395613924592
H         3.52643958436224    5.91826143318874   14.04507574571866
C         1.57149785603726    6.56486504529202    9.48798695691337
C         0.93564724268987    6.73718973918679    8.26281930100882
H         1.01778692877201    7.67217172776401    7.71949931867348
C         0.14038752530824    5.73784103289909    7.73656394088888
H        -0.34182064311457    5.87264660068146    6.77900658745761
C        -0.06046949414830    4.55573196286172    8.45031473390033
C        -0.84971447451188    3.52152869784782    7.90639901193460
N        -1.47639269627907    2.67127913628353    7.45736416612872
C         0.50319969732264    4.41386018832631    9.71900867470567
H         0.30340637178791    3.52300960885796   10.29746407830735
C         1.30078032402760    5.41803575987770   10.23190380628621
H         1.68582456474827    5.30805703461446   11.24231778580210

