29
CSD_code = FAWQOJ | q = 0 | S = 0 | Stoichiometry = C10H12O4Se2W | MND = 6
W         1.57406992237164    2.49455720655700    0.88768844644597
Se        2.98505277870913    4.21800998908479   -0.43508601321818
O        -0.95244754618313    2.49473453077199   -0.95014224070990
O        -0.00917199452599    0.35380447787107    2.49925744557619
O         3.61358114975875    2.49435864940563    3.25763460223802
C         0.04394408738760    2.49445798248610   -0.38810078463060
C         0.58008587100607    1.12780930602718    1.89722475318663
C         2.92974047689291    2.49448438506226    2.34002014137417
C         4.87516050323777    3.78998250697380   -0.03024949839227
C         5.44548502742578    2.49452221618061   -0.58901420103504
C         2.27318237634572    2.49445718409755   -2.75752550055097
C         2.96919247159744    3.79304846003176   -2.37152235023116
H         5.45739561914710    4.63210352497923   -0.41641152946654
H         4.92440597556495    3.80614784911899    1.06132299401976
H         5.36452314022910    2.49450678810496   -1.67930696508063
H         6.51713918315546    2.49451133804693   -0.35928622397960
H         1.26732462421957    2.49443443670087   -2.32722816448805
H         2.15517624763281    2.49443509751437   -3.84693949634665
H         2.42605604508464    4.62700824565669   -2.82435764115803
H         4.00308842027201    3.82931185178245   -2.72065779077849
C         4.87510419054379    1.19910356520403   -0.03020191887983
Se        2.98502809032212    0.77088911572198   -0.43502847130818
C         0.58000644733808    3.86117837564293    1.89727054018688
O        -0.00899729321476    4.63513166951881    2.49962996374694
C         2.96925533425120    1.19591980104704   -2.37145016514248
H         2.42619170254590    0.36191535617444   -2.82428873157934
H         4.00316575229977    1.15970878569605   -2.72054832869231
H         5.45736025807099    0.35695813865514   -0.41627555052733
H         4.92430113851351    1.18300916588536    1.06137267942095

