81
CSD_code = FAWQUP | q = 0 | S = 0 | Stoichiometry = C38H34N2O4P2Pd | MND = 4
Pd        3.44407862547101    1.54904462783011    4.66178075455653
P         4.73252062916669   -0.18384756005238    5.26709431033215
P         2.09056534834821    3.26605578433875    4.10816799465452
N        -0.23672508380901    2.39564120039490    3.35148450461166
N         5.08740522536137   -2.36916553844581    3.68980192056465
O         4.59970711954459    3.55910391845272    6.32124202913594
O         5.81412426296796    2.71923890159360    4.62400095098448
O         2.12642106248378    0.03341082067301    3.75684677408948
O         2.93745152315713    1.22991598777760    2.08759301957875
C         4.70430386429210    2.80689264255187    5.38567655700145
C         6.88398539293556    3.60630949714707    4.94902172363236
H         7.67110469900796    3.42235244550155    4.22231988630527
H         7.24204285317485    3.40150975347413    5.96045089711158
H         6.53979130367770    4.64119686954684    4.89124990222495
C         2.22774856525779    0.31013976705260    2.53468159379930
C         1.43415728355900   -0.55862097393913    1.56272247066577
H         0.42119643112307   -0.68831824900985    1.93502297178254
H         1.90770357185167   -1.53698248913227    1.50242380111076
H         1.42069545836171   -0.09924325230890    0.57818940410974
C         1.11218392270123    3.84162272421661    5.52123972949799
C         1.34510100694953    3.22001507874394    6.74372107469775
H         2.11187145077446    2.44252839499023    6.80733138208164
C         0.61724790437064    3.59409184033282    7.85913951284177
H         0.79799088572824    3.11525444397088    8.81041452606447
C        -0.34753968553190    4.58276838652738    7.75438200867532
H        -0.91723431649922    4.87606642935963    8.62425171610652
C        -0.59260065210363    5.19232101888733    6.53364325968753
H        -1.35339840550678    5.95577987654146    6.45474031600533
C         0.13148994065410    4.82238324158494    5.41528015431126
H        -0.06878405014258    5.28317557465318    4.45686217957121
C         3.08790205090548    4.66331725309247    3.51213306513946
C         4.09002027319143    4.32005954638239    2.60307080664839
H         4.17494433040001    3.28307159233961    2.28527259502911
C         4.95586034456460    5.28817182561652    2.13183864373903
H         5.73242779336757    5.02507045223342    1.42800738741618
C         4.83793767944335    6.59729515094287    2.57594616005013
H         5.52094290743250    7.35319982523603    2.21586515382827
C         3.85539104539882    6.93431567087121    3.49138954227314
H         3.77517194742890    7.95150833290427    3.84683218906940
C         2.97896951304530    5.97108103680058    3.96379689286539
H         2.22788939419569    6.23150171490864    4.69531223939987
C         0.80063280548633    3.05280192986275    2.84949553379234
C        -1.22101347930935    2.06266358204021    2.53878862004136
H        -2.04322811527553    1.52446700707190    2.99347082167115
C        -1.22058331264788    2.37064978814653    1.18621810897595
H        -2.04231561613333    2.07014369139457    0.55431709782727
C        -0.13900039861069    3.06903187696802    0.66907882341702
H        -0.10384007747277    3.32840551708418   -0.37981485581780
C         0.89910419952298    3.42114218653771    1.51339272261822
H         1.77044506276290    3.94914712889224    1.15715654014626
C         5.13618265049316   -1.04674256422703    3.72105673137236
C         5.28594173726011   -2.96452220753898    2.52566787223710
H         5.23080968895343   -4.04579082443195    2.54102831829361
C         5.54085118293231   -2.27352961884894    1.35077964280247
H         5.67803521866350   -2.80726797018758    0.42259353417812
C         5.60828135865432   -0.88690815257521    1.39431082851368
H         5.79962775682269   -0.31619698675202    0.49725695656315
C         5.40335796815877   -0.25230754591402    2.60590833416596
H         5.41895127069760    0.83168966192834    2.71051502688182
C         3.83263563730342   -1.35815280816047    6.30779472950610
C         4.37077620040420   -2.57998828375898    6.69537279488326
H         5.35322165667589   -2.86539864470923    6.34931798383211
C         3.63106962454529   -3.41899348148084    7.50826809026337
H         4.03777742852701   -4.37371669459211    7.80904763644754
C         2.36922553264867   -3.03855542521961    7.93946420329911
H         1.79770607234863   -3.69955129708637    8.57509864894181
C         1.83706071123309   -1.81733592448039    7.55765756689583
H         0.85223936428650   -1.52756908230945    7.89394510510473
C         2.56764503304814   -0.97206851574367    6.74175405371929
H         2.15546136380130   -0.01499148308061    6.41120335241465
C         6.33044515180827   -0.02048483343642    6.11834355210801
C         7.53915339736056   -0.44093177899999    5.57970311214488
H         7.55984888580022   -0.92663081575659    4.61394359103497
C         8.71403096160993   -0.23565347793020    6.28297821774613
H         9.65452524788329   -0.56298214240626    5.86379612905148
C         8.68735605912128    0.38925567434060    7.51822583431289
H         9.60716274749065    0.55048915631585    8.06099446877493
C         7.48174007999731    0.81293944565669    8.05754216390486
H         7.46169196033028    1.30570629190468    9.01846803150500
C         6.30738619391786    0.61176002313173    7.35912885152530
H         5.35943737222782    0.95354403369674    7.75828922365310

