75
CSD_code = FAWSAX | q = 0 | S = 0 | Stoichiometry = C36H31ClN2O2P2Pd | MND = 4
Pd        0.69217520313231   11.58242473467229    0.41173583771002
Cl       -0.67499138511869   13.33721796652292   -0.39075564327102
P         1.43660531319192   11.45018992822784   -1.70028389477431
P        -0.00529130629133   11.88458873953233    2.54218893263036
N         2.57816019498506   13.36878831343188   -3.23512781857941
N        -1.70244129930321   10.53827434953540    1.11573912446928
O         2.83075579642728   10.13738096493789    1.59861903745106
O         1.23446224100617    9.00543791014996    0.48286930770402
C         2.29279145119850   13.03418305970816   -1.98576685707122
C         3.20005829422660   14.51619115548589   -3.44405400099306
H         3.40277755490742   14.75496192365561   -4.48057640213864
C         3.58028820993510   15.37257519318544   -2.42220471148253
H         4.08102684220410   16.30205306253052   -2.64564712225917
C         3.30634436033151   15.00468388960695   -1.11236083304377
H         3.59731114993183   15.64228409031231   -0.28953792932741
C         2.65066872563260   13.80820483061144   -0.88279560058996
H         2.40309275083004   13.46295474412437    0.12961540251830
C         2.71501164732574   10.27670249417001   -2.24281656129458
C         2.49820319440553    9.32421881309956   -3.22964408077649
H         1.55016059192797    9.29323552304549   -3.74812966892683
C         3.49798631625569    8.41953836367421   -3.54337215145993
H         3.32997159458668    7.67988074263612   -4.31289959413833
C         4.70859456545261    8.45718968240416   -2.87230101612683
H         5.48466976096517    7.74710770704942   -3.11827964306836
C         4.92407600322288    9.40172220496134   -1.87976233225363
H         5.86513277478320    9.42620497846277   -1.35003440058983
C         3.93022807662980   10.30677241934134   -1.56241463383706
H         4.08061009592251   11.03576716875775   -0.77434697010454
C         0.10900755941734   11.28030353240804   -2.91188972304633
C        -1.01256983459856   10.60396947086275   -2.43917026461940
H        -1.00827130151521   10.25737980171631   -1.40499569704369
C        -2.09801877985731   10.40852718939244   -3.27156702875970
H        -2.97737562484791    9.89282699991963   -2.91239528957530
C        -2.06163304320156   10.88883714108119   -4.57172068171597
H        -2.91291017688155   10.74539767145587   -5.22173079978115
C        -0.94258027009311   11.55927821397281   -5.03956144976767
H        -0.92532081424514   11.93443316920322   -6.05275242689346
C         0.15199697064498   11.75673822248907   -4.21547579323173
H         1.02760392330808   12.28632497889167   -4.55999958463543
C        -1.71627263984584   11.39084470562421    2.14597443461747
C        -2.88333319808292   11.83785739017445    2.74576945168278
H        -2.84095767964696   12.54220757925766    3.56295599476473
C        -4.09279762725219   11.38051607906942    2.24640372029172
H        -5.02521759360645   11.72346419383715    2.67123667228131
C        -4.08327816482944   10.48089172612570    1.19401934095854
H        -5.00385927593975   10.10268038428343    0.77724944934866
C        -2.86075880503481   10.08427099137680    0.66897384275093
H        -2.81476937791927    9.37599105933436   -0.14897507664325
C         0.47967999432557   10.67295874370912    3.80594879964236
C         0.03538431794606    9.35729502022605    3.71412183959125
H        -0.67351328750802    9.08337810152563    2.94331686264945
C         0.51594115841277    8.40229466792704    4.59058368670203
H         0.16680101027475    7.38206839423163    4.51810100306050
C         1.45097739204844    8.74828697773675    5.55296659250348
H         1.82925850338107    7.99858278735899    6.23228567619098
C         1.91333087684394   10.05138694169784    5.63142883100166
H         2.65586644186737   10.31795584078611    6.36900161385330
C         1.43665981826859   11.01062715926103    4.75747797826739
H         1.80870594381076   12.02514909257855    4.80319797352106
C        -0.16543417167705   13.45415801973318    3.43546361408848
C        -0.62256361897166   13.51479166419787    4.74931833874817
H        -0.86634226754741   12.60319575244900    5.27914420958414
C        -0.75083211416203   14.74217345042049    5.37241514261878
H        -1.10652311679785   14.79299495479947    6.39152272104563
C        -0.42474702385841   15.90618497265503    4.69278044232769
H        -0.52797627193547   16.86158584674742    5.18619400625318
C         0.03139436145565   15.84622014231727    3.38635893020819
H         0.28151795012031   16.75421555346788    2.85812544530520
C         0.16423993346313   14.62174338348758    2.75599029158669
H         0.49787661509723   14.55706247559921    1.72628633995564
C         1.81337758959924   10.11898209410334    0.95281457247353
C         1.87936151056765    7.76845199133655    0.79052744805657
H         1.18804205744920    6.97706693185990    0.51208261756304
H         2.10976543998552    7.72505186157241    1.85747307525134
H         2.80672799259560    7.68206172374003    0.21916708059868

