55
CSD_code = FAWVAA | q = 0 | S = 0 | Stoichiometry = C26H24Cl2P2Pd | MND = 4
Pd        3.68054562619271    3.76856462610999    4.97718177531003
Cl        5.31864795863310    5.27968056024503    4.63391063568101
Cl        4.92062935001105    2.59688093848609    6.45316330710467
P         1.93636547378259    2.33094485447518    4.85848421995158
P         2.05272902379196    4.93235497559993    3.89455679158546
C         0.78663714407868    3.54272085835798    3.96778659420029
C        -0.55325220690876    3.83970894573264    4.62310536114503
C         2.31856903260159    1.18566318701911    3.50294463362563
C         3.65169668340669    1.10936324042704    3.10137490077670
C         4.00393675796351    0.30334371603562    2.03254806985140
C         3.03195603750355   -0.42134992718428    1.36196343314955
C         1.70311534895858   -0.33342304482945    1.74836952632666
C         1.34141411116019    0.47217327896038    2.81221295251253
C         0.95578602060946    1.45799120680376    6.10873096616696
C         0.66734943530011    2.19638783059457    7.25606212764218
C        -0.03200481922898    1.61781286922378    8.29632788785253
C        -0.42608474852331    0.29128063666892    8.20721853072698
C        -0.10523141546570   -0.45562095497993    7.08600265303443
C         0.59078021029215    0.11924830990596    6.03663655838183
C         1.85302416414039    5.82343482661832    2.32973096402609
C         2.92583439978341    6.64123374189649    1.97947377054365
C         2.87473292477315    7.37885721085349    0.81205001716591
C         1.76106305933064    7.29550058063401   -0.00981378269930
C         0.70068887545671    6.47165644091294    0.33201838414770
C         0.74185700043229    5.73088461289101    1.50019381044932
C         1.45631817214377    6.11955067198979    5.14154652899247
C         2.02200452772639    6.06841394135800    6.41615442008649
C         1.57908285506316    6.93238137996350    7.40198422900110
C         0.58150464212548    7.85267662844406    7.12123386759891
C         0.03040052094606    7.91679263356491    5.85127081621558
C         0.46457844749443    7.05496934865512    4.86064877195973
H         0.63566089614492    3.16006935252293    2.94919777814626
H        -0.42286369090945    4.23628484898455    5.62833808869942
H        -1.11026336866028    4.57376012852166    4.04228403340670
H        -1.14857633141828    2.92922860168489    4.69077497863678
H         4.41676329293639    1.68492508617431    3.63852205263418
H         5.03578617444112    0.24173112010652    1.72147396912796
H         3.30717719950440   -1.05213539191245    0.52989761803066
H         0.94696996328051   -0.89116099641170    1.21518426058635
H         0.30240360491996    0.55731754810156    3.10297996563158
H         1.02139831884959    3.21954785618285    7.32752271862908
H        -0.25744055298909    2.19167664723693    9.18277751278304
H        -0.96651756464647   -0.16623625903562    9.02230974665537
H        -0.39053001735244   -1.49584582198755    7.03095594392044
H         0.86093680488357   -0.47394710647998    5.17560397033405
H         3.79219368472635    6.67437095440860    2.62951715138380
H         3.70357551140825    8.01403167061467    0.53834341557174
H         1.72058170732587    7.86928817941551   -0.92376644091460
H        -0.16252581995929    6.40533251793715   -0.31435365377869
H        -0.08665628551344    5.08756674689135    1.76217944702873
H         2.83882674605601    5.36070973829688    6.63107733306895
H         2.01925511218624    6.89498946763484    8.38722832093877
H         0.24078978533884    8.52962346518980    7.89035551491568
H        -0.73743323050164    8.64387075580384    5.63130606588025
H         0.04551344608014    7.11282276447261    3.86561748614550

