35
CSD_code = FAWYIM | q = 0 | S = 0 | Stoichiometry = C11H20AuClN2 | MND = 2
Au        4.73061807503868    3.31143536892585    2.63786659526233
Cl        4.73010105690383    1.05306412464201    2.63830493134964
C         4.73016820418169    5.34689930754332    2.63803466593564
N         4.00625135471148    6.15676583847706    1.83622866940282
C         3.06896175944074    5.71358567324631    0.79476441037796
C         1.95493580572391    4.88487635026786    1.43925534927612
C         3.83107920228539    4.89669275572995   -0.25170100904626
C         2.43578119811978    6.92327065404857    0.10171706779614
C         4.27737348531678    7.46323238960061    2.13640137319031
H         1.44974089392626    5.46338302448096    2.21010564129965
H         2.35771173152547    3.98132129653535    1.89070598034764
H         1.22727984792045    4.59808991686338    0.68569033693436
H         4.64230537841717    5.48568659086845   -0.67495298982580
H         3.15774709139827    4.60498254825437   -1.05238125625643
H         4.24969179349979    3.99640426989799    0.19181541731204
H         3.18631306954382    7.53777919123396   -0.39039031773678
H         1.86844158235072    7.53107477081437    0.80302932755861
H         1.74810889777062    6.56561796199234   -0.65984019709442
H         3.83163006971898    8.29817368911648    1.64264690051048
N         5.45410516916151    6.15676238499793    3.43982233199520
C         6.39136445903810    5.71356837812371    4.48130553801078
C         7.50540703390664    4.88484563157592    3.83686326814807
C         5.62916823652986    4.89668537064482    5.52772057357497
C         7.02449379653601    6.92324898671789    5.17440778437397
C         5.18295584383523    7.46322866628555    3.13968471353105
H         8.01060679930033    5.46335527744894    3.06601926805773
H         7.10267642815668    3.98127322286882    3.38541820280763
H         8.23305827732140    4.59809208988735    4.59044731164284
H         4.81797230031983    5.48571534653833    5.95098505292603
H         6.30247405480739    4.60490824428686    6.32839685295012
H         5.21051015900749    3.99643288662101    5.08416767340417
H         6.27393273795118    7.53770092607859    5.66654357585155
H         7.59182865407796    7.53111646490047    4.47314681071988
H         7.71215724916414    6.56556876924336    5.93596029930446
H         5.62874830309301    8.29816163124116    3.63340984610875

