15
CSD_code = FAWYEH | q = 0 | S = 0 | Stoichiometry = C4H6Cl2N2Pt | MND = 4
Pt        0.86889741349681    3.42296705432790    2.62708734731605
Cl        2.10958756209007    3.63987900908858    4.42948419712969
Cl        1.43764446922054    5.57554508827567    2.26452044922550
N         0.57363353679972    1.25526702565053    3.27359788302315
N        -0.43897175472271    2.54460775004087    1.19920377134101
C         0.08225176141266    0.43182741835291    2.16588852656332
C        -0.99377351063156    1.25532691578485    1.44485815337961
C         0.51401648046733    3.22847806426565    0.52079877452126
C        -0.66012566335315    3.87453824838178    1.14868733404169
H         1.47078029887280    0.93659265574278    3.63564305668928
H        -0.08234539225857    1.26839490727686    4.05484272433677
H         0.91339808187181    0.24905837779236    1.47842371947778
H        -0.32521401423092   -0.53070405923465    2.49697474636756
H        -1.27610091737145    0.78966768870531    0.49502435311982
H        -1.88847835166328    1.36465385554859    2.07176496346728

