37
CSD_code = FAWZUZ | q = 0 | S = 0 | Stoichiometry = C12H20AuN3S | MND = 2
Au        1.05817802939497    2.65598865122511   15.74518016468686
C         0.32735656675466    3.00849301291561   13.85374719253766
N         0.62553555534588    2.30212732639041   12.74408770935035
C         1.54004193829934    1.15076923097186   12.67917266370612
C         1.00801539262754    0.03033656440785   13.57529287641882
C         2.93886632042790    1.58981171098951   13.11723749068140
C         1.62418876610540    0.62590761455745   11.24342501993972
C        -0.05496804103715    2.81784062086412   11.67645453096336
C        -0.78559555615518    3.86038057763146   12.13190428217052
N        -0.54161061239101    3.96795362953399   13.47302626675407
C        -1.13964802859246    4.97497067064331   14.35960853318363
C        -1.96398327175346    4.26569457891903   15.43697470838683
C        -0.02539677499566    5.82013783033546   14.98194394282092
C        -2.06603291290912    5.89931751643613   13.56560591617064
S         1.94356487930147    2.15604277172582   17.82423085624826
C         2.70276082951561    0.81437457195857   17.22582512447709
N         3.23175044258485   -0.11816080625856   16.80307701310264
H        -0.00705469148613   -0.23775540583457   13.28857415184794
H         1.00956517797723    0.32848556529054   14.62030262221495
H         1.64234235115575   -0.84575562847184   13.48133090911588
H         3.28916914524789    2.41697401881725   12.50274907364687
H         3.63082407893413    0.75929425541759   13.01638062103403
H         2.94294251413104    1.90116868864961   14.15845575984538
H         2.01181137099015    1.38277321203621   10.56491554215496
H         0.65623066511976    0.27797188536207   10.88941325675697
H         2.30757836009478   -0.21848537733317   11.22452534003940
H         0.00856302889935    2.43542624745316   10.68187447621264
H        -1.44039762246920    4.50367716657477   11.58689268438554
H        -2.73220122099844    3.64606618512084   14.97915582026107
H        -2.44446411061993    5.00001772457882   16.07677089458992
H        -1.32994369319770    3.63252933537873   16.05305794301810
H         0.57097581903887    6.29240473539030   14.20416256165070
H         0.62916211328226    5.20491603435899   15.59467613795073
H        -0.45696505585438    6.59496263100607   15.60869514992955
H        -1.52257809005093    6.43540379094019   12.79093204411627
H        -2.48872869943463    6.63455079317647   14.24492374585999
H        -2.88955496334018    5.34748806876822   13.11831697370024

