38
CSD_code = FAWZOS | q = 0 | S = 0 | Stoichiometry = C14H10Cl4CrN3O3P3 | MND = 9
Cr        5.22397799498835    1.77345895542123   10.58193195073851
Cl        6.03372447340183    1.10283681455714    5.71752006608275
Cl        3.13674437201437    0.27260710368965    5.01770384524984
Cl        1.25209043500859    4.16198003411821    6.57247625794489
Cl        3.94369300597508    5.40882847472265    7.44987646554741
P         3.43482351583033    1.51256036362868    9.05099844621658
P         4.17480868832488    1.33330128611221    6.31642374136869
P         3.03669434374190    3.67443804217879    7.25500135387952
O         4.62498973744804   -1.12557315888057   10.23179816445580
O         4.65468919417088    0.44912392253100   13.18596954853026
O         2.71346653004435    2.81209793618268   11.80839816536346
N         4.02096046996968    0.69011690879603    7.76499780434510
N         3.82450091017553    2.88994596761553    6.08823450325228
N         2.88526850367699    3.01066541566695    8.69459856035021
C         4.85307901112041   -0.00457866861552   10.31807036893392
C         4.93330299985221    0.98064671482025   12.20188417243789
C         3.66803186300821    2.43604656703512   11.29535122381794
C         6.20879408167436    2.91190328519940    8.92977931388173
C         7.03458408381152    1.82338077644872    9.27909298474843
C         7.43691991705148    1.99821561837486   10.61947621155805
C         6.85382619863708    3.19739301197222   11.09789457916419
C         6.09353606666444    3.75917908908731   10.05119850031365
C         1.93737476580251    0.59871542413829    9.50645251603680
C         1.84172210870277   -0.76104679794328    9.22724660534493
C         0.67654107969463   -1.44403514030733    9.52516119835174
C        -0.39582999881765   -0.77529162174970   10.09299387620415
C        -0.31094832316204    0.58415613759850   10.34740290534759
C         0.85034861739064    1.27464740242163   10.05221922469639
H         5.86282479318784    3.14200657798486    7.93135440429487
H         7.40349186506409    1.07176954251779    8.59551488037756
H         8.17346745290040    1.40415528371608   11.14148714704788
H         7.07224358672502    3.66977644280405   12.04500699636019
H         5.62388646051014    4.73267990698961   10.05575377895994
H         2.67379928221764   -1.26905010698210    8.76321867994211
H         0.60372647917910   -2.49930313161907    9.30821897830601
H        -1.30401028992403   -1.31149997534059   10.32535068068562
H        -1.15368392262069    1.10930197627935   10.77166103686160
H         0.91693964656156    2.33834361883044   10.22468086300023

