37
CSD_code = FAWZIN | q = 0 | S = 0 | Stoichiometry = C11H20AuN5 | MND = 2
Au        7.78568521427328    5.69752418443013    3.97567382614325
C         7.75479141852439    7.70629044272959    3.93327550226132
N         8.78343329189785    8.53282674784980    3.63530540564019
C        10.14533788213769    8.11284620182357    3.27764650155376
C        10.09273517565593    7.26548053765879    2.00363916951412
C        10.75204583701084    7.32565922713530    4.44215368057643
C        11.02639106890219    9.33608843166673    3.00931879598988
C         8.36810435341260    9.83368164545007    3.71503688393482
C         7.06391256081948    9.81683172184322    4.06697120873102
N         6.69621451287007    8.50579405807798    4.19841193165843
C         5.35058836309013    8.05060111259946    4.57347476293835
C         4.77586072531630    7.19032340445136    3.44496526574074
C         5.43280683307208    7.26197306032730    5.88312187149046
C         4.42391452694559    9.25079646975127    4.78722436302254
N         7.76716162509831    3.76337238085219    4.02949763500056
N         8.51227389601891    2.88434090927498    3.82347580737154
N         9.15957678777416    1.97113106704681    3.64794315177634
H         9.63512919556125    7.82886378947158    1.19275497858147
H         9.51333179547757    6.35946394779974    2.16698785120947
H        11.09853783250719    6.98251451317659    1.70719360876370
H        10.75843787637569    7.93138394745373    5.34624402223628
H        11.77356955102016    7.04378742203119    4.20416708682429
H        10.18026695899256    6.42057884601454    4.63480413458434
H        11.11194022220078    9.96621779263706    3.89188288255894
H        10.64792608002334    9.92394623628558    2.17596891488804
H        12.02392913236858    8.99324823225050    2.74797894489813
H         8.99423043030709   10.67722721292597    3.52552488144243
H         6.40748998883402   10.64395719218742    4.22341664828141
H         4.76071197560822    7.75062603216418    2.51211699847540
H         3.75995698574747    6.89386934072062    3.68937365653227
H         5.37295460409463    6.29264797706494    3.30237697767416
H         5.87290656795219    7.87516906257544    6.66716886423456
H         6.04031193520727    6.36880871494481    5.75706087271666
H         4.43679815547903    6.96089447397671    6.19457923884968
H         4.77728959801495    9.88778870709975    5.59505668501961
H         3.43864531963866    8.88317934783653    5.06113548620591
H         4.31850172176925    9.83866560842217    3.87807150267875

