36
CSD_code = FAXBEL | q = 0 | S = 0 | Stoichiometry = C13H10Cl4FeN3O2P3 | MND = 8
Fe        0.16144007913297    0.47226898234365    4.52153643394953
Cl       -1.18338893333168   -3.31659517368209    3.45956794954833
Cl        0.47110579272536   -4.10425727516605    0.96784176177674
Cl        4.54229546721575   -3.40797047636566    3.14457410132638
Cl        3.24588809770822   -3.08875732480219    5.91805839407130
P         1.51840678400503   -0.45507280092511    3.10414803956993
P         0.57057920371202   -3.01484627943784    2.58991978796311
P         2.92005536593822   -2.71748210251612    4.01944837601926
O         2.43214194866679    1.20115531158615    6.14602620788192
O         0.41674693510794   -2.04195329790115    5.90312893930761
N         0.70556074760072   -1.48983667861331    2.12798983962924
N         1.68512206890751   -3.65309356558226    3.56007632652207
N         2.85569099274444   -1.14214792672253    3.75519163152293
C         1.54446648155007    0.95316855543841    5.47298785328405
C         0.25452015989775   -1.04510382502807    5.36865753185221
C        -0.52592039817752    2.27153074938062    3.51653132411622
C        -1.02525118696444    1.15166361721094    2.80722021998766
C        -1.84835060256802    0.41183013360448    3.68398491679167
C        -1.91747916603240    1.11380817095847    4.91991067218524
C        -1.11090461003194    2.26342627690639    4.81334176464253
C         2.19561793051829    0.78487081427090    1.97536268076210
C         2.98964660644034    1.79161391189008    2.50856296411543
C         3.53757973029831    2.74786093516834    1.67441462498363
C         3.28355974441937    2.70296226687508    0.31163437468654
C         2.48946801270633    1.69899611648770   -0.21776823653012
C         1.94196933004543    0.73616606299987    0.61273769463132
H         0.04298903594758    3.08092963425366    3.08815861583435
H        -0.85363108637533    0.93382731606857    1.76613098518709
H        -2.44362926388280   -0.44493383242375    3.41468865576649
H        -2.55180578226185    0.85859184744541    5.75251895551306
H        -1.01614482243506    3.04380692717326    5.55128235005572
H         3.17506295638775    1.80374417372736    3.57286811705389
H         4.16169205815301    3.52916319325051    2.08278399529539
H         3.70934064779651    3.45219346960118   -0.33949713035132
H         2.29867738644270    1.66438961100422   -1.28036639469583
H         1.32698228799147   -0.05961751850997    0.21824567574366

