105
CSD_code = FAXCAI | q = 1 | S = 0 | Stoichiometry = C36H66AuP2(1+) | MND = 2
Au        8.67900446726162   -0.13170990241337    3.08479842916054
P         8.97298414222539   -0.36906928903808    5.35898838596638
P         8.12177536994299    0.08984630878233    0.86258366686238
C        10.59603382478706   -1.11530806247922    5.85744636725498
H        11.28565049140998   -0.25981542954715    5.87269159260935
C        11.12408892226173   -2.07913782065985    4.79193582649322
H        10.48876316407066   -2.96279942551828    4.71759241750791
H        11.12082873551638   -1.58442625990608    3.81445436519508
C        12.54257859799276   -2.51419290512948    5.15489037594650
H        13.20218315619886   -1.64367330641283    5.14903651690431
H        12.91208391829516   -3.21864098604612    4.40824970178222
C        12.56715213904453   -3.15963889827640    6.53776105869777
H        11.95926681638266   -4.06702333985174    6.52655118517817
H        13.58792947246637   -3.44676428591523    6.79115978755351
C        12.02456573273865   -2.19824957040256    7.59113232606559
H        12.66773130678588   -1.31706084229370    7.64613144223648
H        12.03037682044826   -2.67728199990831    8.57112491648614
C        10.60078177862309   -1.77261988514907    7.23777225514898
H         9.96094073928107   -2.65666334038807    7.23480243825295
H        10.21793409041195   -1.08179399748198    7.99324481820814
C         7.62556102655778   -1.44938470384520    6.03211926713204
H         7.78180980194573   -1.56569607721365    7.11234645119379
C         7.66550550915269   -2.81686901383713    5.34680403823161
H         7.59745179923133   -2.67123949447254    4.26281301295064
H         8.60855759537401   -3.32223415550121    5.55728322166530
C         6.51394012535656   -3.70467312105988    5.81098205710821
H         6.61524878359097   -3.89823621944787    6.88083471532393
H         6.56433443014529   -4.66322261688073    5.29206461834252
C         5.17362805399802   -3.03124367816397    5.54410985343529
H         5.04439022383442   -2.88644522585984    4.46874757999494
H         4.36078195871493   -3.66660514252985    5.89621476515629
C         5.12426255781372   -1.68227104497853    6.25104980065569
H         5.20258586226849   -1.83480280468937    7.32929863895945
H         4.17239953873610   -1.18712110168939    6.05269459258897
C         6.26806302716957   -0.78617003566107    5.78260563240426
H         6.15878994483041   -0.59536754031158    4.70852646866608
H         6.20571908495533    0.16913162756136    6.30646999566405
C         8.79198381905400    1.20738692941825    6.34198353653341
H         8.16730514716679    0.97377323335399    7.21480018684152
C         8.06675650228128    2.22611198922910    5.45394181826035
H         7.13420216700956    1.80485930183876    5.06909319299930
H         8.70714146315389    2.45637250440298    4.59586790236367
C         7.77826993329807    3.51149742998915    6.22315728894394
H         7.26505915120183    4.22220837138068    5.57297779865486
H         7.11739660401495    3.29198209526279    7.06438449095769
C         9.07860417352172    4.11769552139188    6.73873426210111
H         8.86632673019104    5.01724015829683    7.31695011491298
H         9.70714757706463    4.40454301817260    5.89266421142415
C         9.82131745659863    3.10740991500347    7.60563530297078
H         9.21964022553076    2.87330154351088    8.48665309637705
H        10.76387134148814    3.53453961571185    7.95072974410561
C        10.10503400070609    1.81972111299537    6.83154261136709
H        10.74718514341844    2.04851229615769    5.97638639630312
H        10.63475079667753    1.12893679485734    7.48892072919088
C         9.56681283422759    0.40046388219707   -0.25804057012128
H        10.11058525044386    1.19526707864309    0.27797747074709
C        10.48290975675456   -0.82313563475527   -0.30481946567358
H        10.66482429270494   -1.19471453594264    0.70967696498909
H        10.00583048424989   -1.61897618929853   -0.87905254187249
C        11.80033938968026   -0.45437831993495   -0.98236276463608
H        12.31127180992733    0.31248157776155   -0.39580379882175
H        12.44951333172405   -1.33013092545543   -1.02550290609747
C        11.53727105743958    0.07018256636417   -2.39124347395075
H        11.09231748913909   -0.72260763919884   -2.99650413756067
H        12.47864809372075    0.35718696182037   -2.86056414131819
C        10.59356955919303    1.26871651480154   -2.35246284269364
H        10.39372301315919    1.61627481949122   -3.36694747381833
H        11.06824215208692    2.08778061148981   -1.80705197706010
C         9.27417290163005    0.90015964725405   -1.67344278995236
H         8.62055986532582    1.77378710205744   -1.65387930300291
H         8.78140919510499    0.12323972567540   -2.25681695646333
C         7.01392257802285    1.56052824395188    0.65320694723136
H         6.68765231368481    1.63109441610171   -0.39111444673526
C         5.78875166086023    1.41309452307762    1.55957032788809
H         5.18066050960907    0.56212291360470    1.24706067926201
H         6.12771994745657    1.22973233863785    2.58612741206886
C         4.92354617506587    2.67032141501396    1.53120695849129
H         4.07091929228606    2.53728469523216    2.19896751224010
H         4.53623289133982    2.81901554656260    0.52130562347311
C         5.73302711883157    3.89224847029900    1.94710879481117
H         5.10588370143718    4.78323359935853    1.91290671973811
H         6.08387731870794    3.76706937519794    2.97440573394385
C         6.92739077221041    4.05942692887081    1.01616062898734
H         7.51926206382388    4.92649630663179    1.31320612943469
H         6.57184439436038    4.23111658828563   -0.00184055766398
C         7.80690511691477    2.81255841753572    1.04151158033546
H         8.64977546315130    2.95735856320892    0.36397254661156
H         8.20788001906417    2.67336332446019    2.05215042325083
C         7.11247397879389   -1.36573805905572    0.31354612540968
H         6.17496899295979   -1.22994107965882    0.87428453894376
C         6.76929707785280   -1.45303190525528   -1.17168817215823
H         6.35255354312823   -0.50867571391960   -1.52878016795171
H         7.66953105959870   -1.67405834151846   -1.74701326029035
C         5.76190260223306   -2.58194188738518   -1.38748213198308
H         5.52000943674883   -2.65693467939444   -2.44847459801470
H         4.83800830747988   -2.35458435330544   -0.85065970121105
C         6.32831958862190   -3.90908094617885   -0.88965690157467
H         5.58979465703463   -4.69960396497435   -1.02586388589804
H         7.20905911250199   -4.17164185052599   -1.47962431323891
C         6.71740163423503   -3.81444777272339    0.58341647529529
H         7.15083996629837   -4.75907050358912    0.91545779747435
H         5.82457898429344   -3.62637228870052    1.18476859299258
C         7.72238050930749   -2.68432984940629    0.79425312681509
H         8.63261149247113   -2.91041063988169    0.23840953343137
H         7.99154200090482   -2.60761731789252    1.85389936858254

