41
CSD_code = FAXFIU | q = 0 | S = 0 | Stoichiometry = C21H14N2O3Pd | MND = 4
Pd       -0.81083534068251    3.15584053873998   10.46202245811235
O        -1.87064349778381    2.68749945302294    8.86896978260518
O         0.65583765997892    3.91688026972551    9.36997538134236
O         1.75711579114545    4.56050674440074    7.59789796180388
N         0.12520721102019    3.55679451998572   12.14023405404227
N        -2.15876636677165    2.45796022135064   11.71915678076985
C        -2.43947535489337    2.47717101907181    6.64395440076814
H        -3.35093369907217    2.00180244574676    6.97976230382989
C        -1.53366856962063    2.90045476377414    7.61515580337520
C        -0.32311048085167    3.52846272605205    7.17487948616522
C         0.76507819915434    4.03748101809812    8.08222226847658
C        -0.10222910687247    3.69490671473811    5.82804753226482
H         0.82074099149535    4.17380633849907    5.53155856790144
C        -0.78114550897296    3.44862961325431    3.46813668557751
H         0.13508049023487    3.92890723745365    3.15552809637524
C        -1.69597874417780    3.02029315559706    2.54679846837306
H        -1.51473469093114    3.15694612350513    1.49042718445809
C        -2.88341590601226    2.39667509213610    2.96642111422657
H        -3.59503177831675    2.06354828193305    2.22400956860364
C        -3.13870660693236    2.21237545029369    4.29530381044975
H        -4.05202991198716    1.73289014967288    4.61916126679550
C        -2.21485005028321    2.64448509955109    5.27415783162015
C        -1.01366447234065    3.27311632597519    4.84690125312961
C        -0.53709930249258    3.19959274037376   13.27066335887605
C         0.02319226616379    3.42879954397879   14.52881766883117
H        -0.50962637042979    3.14182176538577   15.42073198892296
C         1.26497305513646    4.02505093157783   14.62175378683898
H         1.71216760476712    4.20900667820217   15.58612332535331
C         1.92939600362754    4.38421903077292   13.45095497646713
H         2.89985067772063    4.85137866590961   13.48608678564977
C         1.32539038462891    4.13307784067699   12.23500436719861
H         1.79498024667995    4.39198722180731   11.29086903674529
C        -1.83351525509903    2.58027889419155   13.03114448692784
C        -2.70603804053526    2.13412312557413   14.02628143915453
H        -2.44023135988818    2.23663170949109   15.06563089467977
C        -3.91084871134782    1.56226046430981   13.66924519587459
H        -4.59575448823407    1.21325862246180   14.42623360164499
C        -4.22651572549849    1.44401446914339   12.31841742476164
H        -5.15774602274700    1.00240805491567   12.00368518666448
C        -3.32296821872724    1.90450776680714   11.37998229373069
H        -3.51624700025129    1.83884917184230   10.31459212061216

