41
CSD_code = FAXGOD | q = 0 | S = 0 | Stoichiometry = C22H14Cl2N2Zn | MND = 4
C         7.63919653361527   -6.26857342861711    0.74094429113784
C         6.40656299659919   -6.09834329034776    0.10490736058228
H         5.73007805252486   -5.32744071465399    0.44047368043006
C         6.07735121298955   -6.92723718724526   -0.95132195333148
H         5.13333654921277   -6.81418837799129   -1.46287342277810
C         6.98113508803261   -7.90521894707869   -1.34235926746181
H         6.76256107389049   -8.57177875318832   -2.16072056203363
C         8.18516642552878   -8.00701832257352   -0.66009561962178
H         8.92253866449952   -8.75203846968975   -0.92533718399383
C         8.03844145306785   -5.42576359379618    1.84449287954102
H         7.37303171437751   -4.60091819885363    2.10110635125990
C         9.62164818264163   -4.82358511675943    3.45744777501388
C         9.45435707172914   -3.43378140873267    3.37829245124732
H         8.89592338076873   -3.01849497319536    2.55264611275895
C        10.06806142092843   -2.59370499415298    4.27452929563142
H         9.94998905341013   -1.52438234573423    4.17765961398244
C        10.87485346674175   -3.10032541509371    5.30103432292451
C        11.05132606063444   -4.50301350771810    5.40645807889252
C        10.41792820835852   -5.37689671717288    4.48875429193045
C        10.57843080181645   -6.77928295282699    4.65676512513078
H        10.05021425236695   -7.45052243999105    3.99667274105190
C        11.37563618415839   -7.28254184827535    5.63274347343556
H        11.50395037554108   -8.35029727603795    5.73008275388314
C        12.05541921457709   -6.43078818220909    6.54721478948737
C        11.87395812273335   -5.03072947964148    6.43140953214882
C        12.88260116587304   -6.92870245064669    7.55783005065953
H        13.02193627899027   -7.99632040775048    7.64384023202263
C        13.51814913598132   -6.07093471845797    8.43640762224112
H        14.15698910750626   -6.47210685143288    9.20946822325515
C        13.34253264987158   -4.70256331152381    8.33454237747295
H        13.84339947521690   -4.03866846481192    9.02436646873714
C        12.52418375759845   -4.15986097565809    7.34111104480019
C        12.32538335179455   -2.75585207179050    7.20704923522858
H        12.82459103774653   -2.10069251668909    7.90661513215249
C        11.53448285080992   -2.24932435037867    6.22967287377709
H        11.39075770279166   -1.18263114984493    6.13408638241302
N         8.50225187198717   -7.21248476259193    0.34547973684548
N         9.11859380991974   -5.66221619646493    2.49102297188223
Cl       11.17717255844379   -8.91087756626583    1.80674296348028
Cl       11.27620222184376   -5.27911550586940    0.10473341397645
Zn       10.39757746286965   -6.92768275824102    1.28240435980979

