27
CSD_code = FAXGOB | q = 0 | S = 0 | Stoichiometry = C11H11CrNO3 | MND = 9
Cr        3.45677166004423    5.34178142122952    4.17726679204940
O         1.14553434056153    3.46813651163517    4.18267106336305
O         1.14755538611801    7.21845354532442    4.15869425466847
C         5.37494370925559    6.58842289905941    4.36424662516402
H         5.64871209904982    7.55958365772481    3.97925414739540
N         6.47493219328515    5.46111499052989    2.50819351392497
C         5.76353713957866    5.40837940568786    3.68300511849215
C         2.07132340622753    4.16178450334085    4.21473940506641
C         4.73371277627626    6.52860474857727    5.61012749428846
H         4.53530207199607    7.45439647840648    6.13891520313539
C         2.07228937019949    6.52391671502774    4.19757799645997
C         6.45810778301916    6.70345260265885    1.76108709843147
H         5.43524077784466    7.03042297942616    1.53863051501206
H         6.98938018135862    6.56209630503528    0.82357314792673
H         6.97442608053532    7.48697867146703    2.31665819771999
C         5.42460325988962    4.17215410765337    4.29131814285776
H         5.73534961960806    3.23857157748240    3.84600654726598
O         2.75508020075291    5.29969274021663    1.28481156020566
C         4.78387668497169    4.12903234794490    5.53602405707699
H         4.62449297729541    3.16601938387420    6.00849617035734
C         3.06534554868958    5.31712104611505    2.40231687096976
C         4.46255398038257    5.30374811675645    6.22835384915553
H         4.05015981055576    5.26380288317086    7.22805407015069
C         6.55807747118878    4.25765125214053    1.70504544649102
H         7.10044354191684    3.48035877772671    2.24385911916462
H         7.11493567074215    4.47518698139373    0.79716598826091
H         5.56601225865639    3.88203535039449    1.42700760494594

