46
CSD_code = FAXHAQ | q = 0 | S = 0 | Stoichiometry = C25H14ClN2O3Re | MND = 6
C         2.42348217806918    2.58319494210302    7.57790935722226
C         2.03982067816396    3.57328955680192    6.67230220288088
H         1.54951621341166    4.46346549359114    7.03504281666763
C         2.31515707409430    3.39688862127060    5.33136741958971
H         2.04217259097367    4.15029390966524    4.60861131673495
C         2.95523531479216    2.22930950073672    4.93489973209848
H         3.19206387678855    2.04896802246985    3.89890330529512
C         3.29712949831621    1.29023850413549    5.89310411313451
H         3.79549633194980    0.37232452879577    5.60986094775983
C         2.20501996995607    2.70203357079906    8.99820169140837
H         1.66589870122796    3.56389665310553    9.38573722194274
C         2.46917365182823    1.89984237387228   11.15512870925264
C         3.57867570182438    2.06729561442674   11.98009764766966
H         4.55877517827237    2.11931160334212   11.52775443555733
C         3.42640256088735    2.20478927940392   13.34148955140254
H         4.29474546594178    2.35275787871750   13.96575853009189
C         2.15901288255060    2.16002444100819   13.92753971847547
C         1.02461008369284    1.96118939510467   13.10214285844531
C         1.17305657002329    1.83214916034941   11.69782461042335
C         1.97204050446510    2.30512137981071   15.33253332946761
H         2.84776295915093    2.45743873901998   15.94679222763337
C         0.73830046706413    2.25286926369274   15.88607589052064
H         0.60625170444987    2.36346823265606   16.95287638127402
C        -0.42202401714310    2.04647982573987   15.08402160868541
C        -0.26563361151201    1.89837967572726   13.68323542720921
C        -1.70362202800533    1.98542548235619   15.63412574335549
H        -1.82362031886792    2.10206474107494   16.70155637896455
C        -2.80952806467751    1.77800450655513   14.83032473665118
H        -3.79322358659464    1.73173894746395   15.27432583646037
C        -2.66677780235938    1.62707682908001   13.46329631940023
H        -3.53459854179243    1.46087214974642   12.84142902645507
C        -1.40498414110655    1.68424471537073   12.86941980222428
C        -1.21768656562036    1.51556211623379   11.46731257757902
H        -2.08728467828837    1.32180515220840   10.85573921507645
C         0.01203160477665    1.58459054163649   10.90696258304076
H         0.12684227230603    1.43073251483124    9.84256115201863
C         2.33581403426070   -0.97682281277575    8.83766153446795
C         4.98724507836829   -0.84314132731561    7.74542730738764
C         4.57366159425786   -0.45657417391439   10.47130910166121
N         3.04584095558644    1.45245778894454    7.18602681703500
N         2.68288045857672    1.79286025369423    9.77157580082618
O         1.42950235675348   -1.68267429302206    8.83919337099271
O         5.04225993884789   -0.82345819154089   11.44740377858336
O         5.72490964682235   -1.39687894348293    7.07027485714013
Cl        5.49494905154099    1.96487861912847    8.72613735245485
Re        3.81714620597885    0.28161521737609    8.83082565738352

