105
CSD_code = FAXHER | q = 1 | S = 0 | Stoichiometry = C36H66AuP2(1+) | MND = 2
Au        1.79748629526409    4.77445313146930   15.95166547296840
P         4.08018794107159    4.51011207553979   15.85937821752834
P        -0.49271226277883    5.00569482475741   15.90481714471453
C         4.85222893361349    5.68194301549416   14.64641512426922
H         4.53116148593359    5.27620138739288   13.67529038523169
C         4.24020177020926    7.07981791111930   14.76218006299285
H         4.54939294468767    7.55761325580220   15.69243599475349
H         3.14691416188456    7.00551145348018   14.77342696986318
C         4.69744955796305    7.93665078647640   13.58383616068916
H         4.33193204560067    7.49946702290425   12.65144591212193
H         4.27423300498924    8.93854209460709   13.67197361852158
C         6.22120145434552    8.01674117542339   13.54416613075611
H         6.53685647604832    8.60791660393321   12.68405491438482
H         6.58072898956187    8.52046539425913   14.44409445496371
C         6.83358768722891    6.62093587914767   13.46470326401824
H         7.92201399089254    6.69309422503152   13.46667673623151
H         6.53311918458015    6.14249203814166   12.52974885038933
C         6.37683504431947    5.76690314120844   14.64687600600533
H         6.81820539074268    4.77002033675165   14.57936712313746
H         6.72089789998396    6.23711310366642   15.56928672592919
C         4.48297576321223    2.81390380834635   15.23221436627439
H         5.57002770875363    2.69515936871519   15.15252260128121
C         3.91350914432702    1.79650640640486   16.22618350557951
H         2.84865632270960    2.01224839020292   16.37570734772671
H         4.41111670034818    1.88738614646416   17.19310540747807
C         4.07124769976027    0.36644927551768   15.71706433070274
H         5.13329384178205    0.12988425234027   15.62542563224865
H         3.63700063077887   -0.32514877767803   16.44070956828307
C         3.39766160483899    0.20169349305717   14.36042295299021
H         2.32598775974959    0.39258322703755   14.45676452541529
H         3.52566878218612   -0.82003833628612   14.00236208099625
C         4.00390660827783    1.18192150002793   13.36413604441536
H         3.52190047284304    1.07717322370287   12.39083059379674
H         5.06518314674546    0.95903038220221   13.23673685219462
C         3.84444664190007    2.61895085559782   13.85379963831087
H         4.30017774120792    3.28938214967442   13.12288845129234
H         2.77758879431614    2.86325345386653   13.91939065366502
C         4.86684860468923    4.62170135341797   17.53514729402863
H         4.21510235880609    3.96862609336876   18.13836501426328
C         4.73009244962189    6.03822797604167   18.09520303201554
H         3.70464676331339    6.39887702632407   17.95602376168816
H         5.40326960815111    6.71251195003651   17.56324936341462
C         5.10002041349445    6.04445826625970   19.57630883583176
H         5.01595327035509    7.05764535109838   19.97221802470242
H         4.40375829187780    5.41007789799026   20.12963826894226
C         6.52350039049119    5.52703735432468   19.76451483040902
H         7.22407637080467    6.20497636316887   19.27216084328271
H         6.77156022595422    5.50711457789113   20.82610192598004
C         6.67201295627559    4.12767108916439   19.17389632268262
H         6.02265375811847    3.43433588712734   19.71374350097758
H         7.69983640104199    3.78234534445722   19.29318949795615
C         6.30361529905915    4.12231503598738   17.68986594272931
H         6.99387301632816    4.77116655507589   17.15226243743604
H         6.41116765244241    3.11150985173347   17.29247564800716
C        -1.42236788654843    3.43747694017231   15.50400472383883
H        -2.20269433518349    3.70078663968464   14.77712393413474
C        -0.43109065580383    2.46233470714014   14.85665000056295
H         0.33080066775283    2.19915221491042   15.59810082879061
H         0.07686060568314    2.93434992320464   14.01152037650199
C        -1.13967900646868    1.19286965075884   14.39443010371394
H        -1.88407032527857    1.44709365507048   13.63694704460181
H        -0.41792937726147    0.51416962536150   13.93634699758362
C        -1.82337413527997    0.51364229835491   15.57572983265884
H        -2.35800949897417   -0.37390464714491   15.23652788730862
H        -1.06943655462417    0.19369928648546   16.29872224659995
C        -2.79463175919746    1.47896116245779   16.24582570241197
H        -3.26099704460103    0.99953678720918   17.10763675801376
H        -3.58733907271427    1.74287573551271   15.54231182564933
C        -2.08117462422040    2.75205290469465   16.70206422566350
H        -2.81264883857910    3.41007857640984   17.17305989740778
H        -1.31960139018021    2.49133902039858   17.44254512100422
C        -1.21950529204954    5.65866752568499   17.48070833660478
H        -1.32193209172242    4.76548365794352   18.11274314140556
C        -2.59341173581070    6.31166882150830   17.32941560862542
H        -3.28135773168722    5.64172469393649   16.80732644540379
H        -2.51049036493460    7.23005834160447   16.74582133269566
C        -3.14499536505136    6.65562629638431   18.71172595215806
H        -4.11933519652371    7.13479601171284   18.60703017310752
H        -3.28383440310972    5.73897812529941   19.28947143262485
C        -2.18577606922377    7.58364635084517   19.45163852890870
H        -2.09786046865196    8.52559067644160   18.90572651102859
H        -2.58146377944800    7.80921522064996   20.44223672252687
C        -0.80719198783338    6.94177109267894   19.58213388905611
H        -0.88501784970229    6.03335131893071   20.18369765965912
H        -0.12570977578444    7.62365061283367   20.09296777063518
C        -0.24658982900782    6.59241679804890   18.20500855940421
H        -0.09460347656612    7.51187309444600   17.63799918478728
H         0.72716603681012    6.10088600077559   18.30881406287408
C        -0.97518684127066    6.15689054807919   14.53558123658557
H        -2.06827880759766    6.25721787623955   14.53351911367245
C        -0.51343864000451    5.57002696717241   13.19841979260356
H        -1.01643463607627    4.62118356184642   13.00396888446105
H         0.56559363073296    5.38104314583629   13.24786021668319
C        -0.80284554663991    6.52805304240636   12.04547484834463
H        -0.45231536390562    6.08580886622735   11.11159341823182
H        -1.88125434503995    6.67654888523125   11.96024944935635
C        -0.12376169636496    7.87195264544768   12.27941153073027
H         0.95981366517795    7.73494684587367   12.31651905633207
H        -0.34742384819296    8.55068061166360   11.45610654874945
C        -0.60838941493023    8.47085438844266   13.59382327220297
H        -1.68295528838011    8.65590096779669   13.53312294255139
H        -0.11497227683025    9.42665376597105   13.77720687344628
C        -0.32382947380760    7.52380133093022   14.75672093606233
H         0.75884799833399    7.38808167749060   14.85938987413452
H        -0.69133569418243    7.97621010362206   15.67835082144700

