44
CSD_code = FAXHUI | q = 0 | S = 0 | Stoichiometry = C18H18CoN3O3S | MND = 6
Co        6.50621208336907    6.90129700260235   16.78870078949022
S         8.99998408770635    3.53212597497344   18.10738947300066
O         4.95382105513783    5.83539010386581   16.79372056123512
O         6.95548882749501    5.92858559913676   15.23955239668348
O         5.38361576646782    8.13264100812387   15.42546849195751
N         5.84051319835618    7.83625992470165   18.35176616334180
N         8.13715855120774    7.93019964369451   16.56394188350582
N         7.39908577185719    5.75518763929095   17.87991530504576
C         4.45452435294060    5.99629799036439   19.11120134021063
C         4.39567902686021    5.34691942285575   17.84377702307730
C         3.62698654514101    4.16306995785504   17.75018178555176
H         3.57233832617046    3.67854382744498   16.78750330411740
C         3.00097518252115    3.63693568647376   18.84912380225322
H         2.43906410952362    2.71876138218120   18.75486810745887
C         3.08362103767274    4.26633605846720   20.09539016152569
H         2.58865560992045    3.83435558047767   20.95137572820849
C         3.79244429800229    5.43309254253137   20.21498461558339
H         3.85879974331416    5.93528256247242   21.17036386497026
C         5.10159414453629    7.25343416938359   19.23427080716171
H         4.89194278235273    7.79071452369865   20.16386277352743
C         6.25753998184040    9.18969647524750   18.63957311679064
H         5.77470271135604    9.85695683714009   17.91530683511346
H         5.92717917629302    9.48082304092810   19.64595176027015
C         7.76973542952763    9.35826511944599   18.53653034708108
H         8.26305444164434    8.58243060609591   19.12457021197809
H         8.04465580828940   10.33402593026661   18.94054662889171
C         8.23994983269082    9.27330708376493   17.08834862742126
H         7.61492303495166    9.92974191797463   16.47098282946007
H         9.27790063211137    9.62628173182367   17.02100198667931
C         9.20614644058609    7.42120159910817   16.04860245296377
H        10.12852282056623    8.00693750952156   16.09826717034082
C         9.31358032393225    6.18932607473477   15.35382614759461
C         8.13379793214886    5.49533749414935   14.95565123332025
C         8.29223258011235    4.33167773561414   14.16931886004213
H         7.39829661099029    3.81183566387550   13.86074396989418
C         9.53817930861474    3.86090391976971   13.84830153220150
H         9.63234673510430    2.95105163433082   13.27316840986641
C        10.69209517775394    4.53248985634640   14.26404311242844
H        11.66467414334158    4.14044643643390   14.01028127511070
C        10.57490039563644    5.68531183994704   14.99516816343798
H        11.45744288189076    6.21730013968243   15.32249801134118
C         8.06981511615120    4.78195620077926   17.89076839803779
H         5.73546999113134    7.77664397129968   14.59836480249232
H         4.51985399277987    7.71082058112578   15.52822573933677

