57
CSD_code = FAXKEX | q = 0 | S = 0 | Stoichiometry = C25H18CdN8O4S | MND = 7
C         2.07623533634556    6.64421771667505    7.32301257592897
C         0.77840299247240    6.95091578815261    7.80580875604602
C        -0.12176582762409    5.69417037285307    6.10105120999441
C         1.11386447539793    5.76947197890859    5.41362153904322
C         3.31509736891708    6.72459245043797    8.09708614447077
C         3.32308218325888    6.53169002897767    9.47776167836442
H         2.40289077446068    6.34761979936261   10.00752046196795
C         4.53860184412654    6.52251289229574   10.13662510169040
H         4.57857579696059    6.35893163187224   11.20320822087009
C         5.70085699829152    6.71039862433754    9.40418795755740
H         6.66782297237175    6.70803294309340    9.88140759668319
C         5.59505796107252    6.88403646604670    8.03306253248186
H         6.47612118573759    7.02132468728973    7.42012525460445
C         0.53326803044408    7.86277081402908    8.92368934724359
C        -0.61783126858201    7.73687269228516    9.70141464816693
H        -1.32057495375756    6.94958064928632    9.48383921433679
C        -0.80513985677215    8.62273268281330   10.74756642538176
H        -1.68132357018682    8.55244288195289   11.37560795831807
C         0.15166798107932    9.60001230105276   10.97638995508968
H         0.04382298380549   10.31006962374888   11.78115545969106
C         1.25891336475082    9.64316021450425   10.13937432206741
H         2.03244072352204   10.38847444319533   10.27112597771431
C        -1.22781041309760    4.82135449700007    5.70806507594641
C        -2.46690876007952    4.91755201567572    6.34354889824999
H        -2.62024482113192    5.67616196676412    7.09327091730738
C        -3.46152069161053    4.02385984678690    5.98926304290949
H        -4.43121921372924    4.06648254763141    6.46372412196577
C        -3.19055660375003    3.06951342287163    5.02057765460667
H        -3.93555430891160    2.34945901185704    4.72081907437413
C        -1.92640713836187    3.06119869940810    4.44503130673629
H        -1.66011001109912    2.33841290006533    3.68490436203246
C         1.34119045668363    5.38615055702372    4.01815520995734
C         0.39133906981064    5.61056634183934    3.02224940780040
H        -0.53880768416513    6.10066017164908    3.26175199850814
C         0.67379733798783    5.20509376211733    1.73167486132739
H        -0.04336777300287    5.36331999603511    0.93993917922073
C         1.89180164649822    4.59253620538756    1.47258215065758
H         2.14121968277007    4.24770533663840    0.48177345309961
C         2.79250605307101    4.44083088470971    2.51484156565174
H         3.76060005333003    3.97958109069209    2.36655444742410
C         2.59881514013056    3.67314366065266    7.70971280005735
N         2.17797593579313    6.17210555808010    6.09115908590325
N        -0.25898736619959    6.39550295412034    7.21451124647074
N         4.43749166636565    6.88512493170334    7.38824141982556
N         1.45078031904052    8.80348020912062    9.14212780797521
N         2.52806648814921    4.83706774856913    3.75114162401286
N        -0.97351950630167    3.90864013667145    4.77255022592179
N         6.36773926585233    4.06995567539761    4.83813466607531
N         3.44834121451208    3.69985453642208    6.89454192748561
O         6.23023400718033    5.02096318389342    5.63321361529613
O         5.37198971036250    3.70119944858467    4.19594589095136
O         7.44015561758478    3.55878994881415    4.67410633440103
O         4.67397064457449    7.10321793065596    4.52932625752539
H         5.63351236441002    7.03278061696360    4.44883169842519
H         4.52853593678142    7.45226862792491    5.42613423850823
S         1.45764848089700    3.66901093269613    8.80611229939920
Cd        4.07751570357036    4.93032296239166    5.39663979627177

