43
CSD_code = FAXPZN | q = 1 | S = 0 | Stoichiometry = C18H12BFN6O3PZn(1+) | MND = 6
B        -0.47641730917168    3.10565651871928   -0.70288227840822
C        -0.42203274910733    2.82589156866180    2.88472521206583
C        -1.83727001406433   -0.22338389347845   -0.55019566356640
C        -3.89562025246830    4.09637242686295   -0.16828311991582
C        -1.37316517573368    2.28513031237943    3.83734249249686
C        -2.82910839256418   -0.83494362037424    0.31409659733756
C        -4.93255986563059    3.59303843273087    0.71269158772493
C        -1.14493733814297    2.27421752227747    5.21380028467625
C        -3.22735352276612   -2.16625705784951    0.18814199604706
C        -6.21352838063052    4.14355732883390    0.76791802426596
C        -2.11126936602618    1.73522107919284    6.04610827678520
C        -4.18483142072530   -2.66128585811701    1.05716704542737
C        -7.13737082457558    3.59699274028016    1.64235134071198
C        -3.27438790696173    1.22441745910132    5.48735626638511
C        -4.71630500949169   -1.82099408843152    2.02533173551552
C        -6.76235366536156    2.52083128387982    2.43430426735930
C        -3.43263812392788    1.27163481867726    4.10408707556000
C        -4.26847817759177   -0.50359596490995    2.09118029094308
C        -5.46547872189030    2.02459340767841    2.32354625268834
F         0.43810245674862    3.61482890594879   -1.53266043440170
H         0.51722378216547    3.25252965370324    3.21912095328572
H        -1.35649647980686   -0.79609185196314   -1.33559505206316
H        -4.08838959389536    4.93174274810225   -0.83304389268819
H        -0.22876564923532    2.68091259034930    5.61139034596487
H        -2.79113604638496   -2.78903101723984   -0.57652984486601
H        -6.46815005525234    4.98030859905641    0.13704156864197
H        -1.96293980503112    1.71284117339373    7.11493067429555
H        -4.51396658962396   -3.68642076328618    0.98300559213613
H        -8.13576667302117    4.00177509658753    1.70783236531695
H        -4.05101662758170    0.79546110579593    6.10220939239146
H        -5.46428107476543   -2.16931822056113    2.72121160000520
H        -7.45349337963319    2.06700739116364    3.12812713493277
N        -0.76516490534496    2.76316548773431    1.65477558572510
N        -1.58124302804315    1.00843737225784   -0.32333618946631
N        -2.76779707265434    3.49772206170755   -0.10379571934611
N        -2.50331962465480    1.78836826050000    3.31371933418463
N        -3.35299636348923   -0.03626230588227    1.25522460399451
N        -4.58636159906649    2.55300238433911    1.48500749487685
O         0.03763910970157    3.23171785138541    0.70496418059346
O        -0.68848742513547    1.65988893820875   -1.06134278257813
O        -1.75328381862670    3.88415382505600   -0.87026250497916
P        -5.00844544447459    0.58364302873783    3.40236266070695
Zn       -2.61165787606274    1.91642326879018    1.23185524923759

