33
CSD_code = FAXPUQ | q = 1 | S = 0 | Stoichiometry = C15H11N3O3Re(1+) | MND = 6
Re       17.37491697149821    6.69001586069241    3.29004210136333
N        19.21803705932390    5.71176940597988    3.86059390231635
N        18.21764573311752    7.97041094424844    4.81713156771838
N        18.54001913897806    7.74598514295854    1.98442705325777
C        15.80526232267566    7.79416757082648    2.88103704994096
C        18.21277294332614    9.87269807739218    6.25885949011065
H        17.70602679388378   10.76283963929363    6.59282889888502
C        17.64782955604767    9.08318012716339    5.27237975414764
H        16.69623010231833    9.35370470666749    4.83417435739259
C        16.38106700819370    5.68583287272809    4.64617616152406
C        19.96214615728029    6.33531672494586    4.79437215146358
C        20.02703702008752    8.33088938965260    6.33157530670464
H        20.96941015285614    8.01427264501779    6.74520127098698
C        19.16897439274770    8.32836642859307    1.22004943654891
C        19.39983691561948    7.58506866424102    5.33532571394156
C        20.85764076011218    3.98324665733769    3.71669249388277
H        21.16604188705515    3.05345051798798    3.26830704545068
C        21.63593245332503    4.61814758720725    4.67158471621242
H        22.57607246561431    4.19711062055309    4.99089184110012
C        21.18120848316960    5.80679529074242    5.21473813530445
H        21.77245582962189    6.31195002345295    5.95946754232368
C        19.65970147971450    4.56793567519037    3.34431099295593
H        19.02767448004800    4.09541185833363    2.60403827891771
C        16.84283008794617    5.42284610794993    1.88964797269712
C        19.42868532673619    9.48705865693453    6.80057060985892
H        19.90158807845485   10.07047427207019    7.57459140441607
C        19.92948934863078    9.04804030540811    0.25791782764083
H        20.53564267715471    9.81084292681915    0.74721175129927
H        19.25154419877191    9.52922264051563   -0.44827613142210
H        20.58152254680317    8.36397131721291   -0.28630068849321
O        15.84378045020841    5.10713714893528    5.46406007093229
O        14.91428117188468    8.47157825545950    2.66941071102196
O        16.57649600679451    4.66596193748834    1.08116120959921

