73
CSD_code = FAXZEL | q = 0 | S = 0 | Stoichiometry = C26H40Cl2NNiP3 | MND = 4
C         8.07275323180253    0.48780808999372    9.27108416064898
C         7.46256806151946   -0.02172842928880   10.43477538842351
C         7.15413612813809   -1.37383080430296   10.53050553081766
H         6.74364375588563   -1.76249290734346   11.45159062524760
C         7.38370054931132   -2.23592948667972    9.47333618747963
C         7.88559153792830   -1.70094142180718    8.28586052768886
H         8.01621003419940   -2.34934672088549    7.43146355738340
C         8.22669678966337   -0.37211773896784    8.17733557056515
H         8.60431367734265    0.01188586386784    7.24166527519058
C         7.08073607050899   -3.70011234993823    9.57592948598495
H         7.98902581354998   -4.28632439423720    9.43916250253505
H         6.37403974884498   -3.99847001226901    8.80236462205641
H         6.65587229845799   -3.94308583046230   10.54673216339397
C         9.21683899399332    2.38933505206063    8.26776816737288
C         8.92595846605524    3.66465078165240    7.75697795683081
C         9.76702971282968    4.18673438475185    6.77917316728654
H         9.56063106516749    5.16120094639928    6.36401875996976
C        10.87812087173730    3.50517511109444    6.30649499292610
C        11.17249924349839    2.26386452751301    6.85637612384252
H        12.05005776266962    1.72424787547461    6.53109876380997
C        10.35937067879314    1.72129342109743    7.82839633624962
H        10.61221290055841    0.77021705667776    8.27445933881836
C        11.75976493813638    4.11838989625150    5.26153932035137
H        11.17819732188821    4.72056169491357    4.56688285480996
H        12.29157921958126    3.35092629711993    4.70448136887338
H        12.49905060744677    4.76781147275254    5.73168679506568
C         7.66972463880703    0.65202343826866   13.26084094703142
H         7.45537872148520   -0.42517765983893   13.26519820692910
C         9.17809641513970    0.86233091656954   13.25358002777880
H         9.40240549709833    1.92809999973182   13.27322066575995
H         9.62287278156517    0.42932945038448   12.35632204268110
H         9.63292830946127    0.39654669676090   14.12574560932154
C         7.01502342827093    1.30444162649031   14.46939013857846
H         7.45985680037307    0.90910093139620   15.38104261806090
H         5.94589557972242    1.10725380388401   14.49821958153404
H         7.16483484948636    2.38090775675238   14.45080093735858
C         5.14273823798794    1.26192042668163   11.69712604786218
H         4.87925556163819    1.98261443719580   12.47852919263409
C         4.65180154522038    1.77476180892934   10.35065680445544
H         4.96394831210530    1.10859307654295    9.54407418261983
H         5.05670644528903    2.78868359015083   10.15953029361319
H         3.56654750565897    1.85331623930789   10.34183961032016
C         4.53873537398828   -0.09640184024741   12.02545237565729
H         3.46823607061242    0.02448573832276   12.18487641657258
H         4.96751124847393   -0.52283691782091   12.93006414617078
H         4.67930912317524   -0.79175988857444   11.20088329030308
C         6.33023070883962    4.66535508399781    6.90899386029587
H         5.55173357779648    5.37620714513762    7.21103814923824
C         6.93427544171151    5.08999644939729    5.57773055287895
H         7.64395861051501    4.34689000917154    5.21916606115957
H         7.43519050985439    6.05267404067510    5.64996980833923
H         6.13919700989586    5.18043209701231    4.83857050588190
C         5.70880520197482    3.27361111773579    6.80924498488509
H         4.97196041669562    3.23952984822828    6.00895935704700
H         5.20947226097717    3.02477312215357    7.74455972912373
H         6.47362752106869    2.52226988446919    6.60799061080077
C         8.23639130397390    6.33310383596659    8.55437482583035
H         9.04294964564879    6.45890945353737    7.82423191921953
C         8.83357628655901    6.35094471927227    9.96274714668856
H         9.27390668479890    7.32018362525453   10.18977435618881
H         9.60543065001444    5.58472144168841   10.06513986949916
H         8.04013070948593    6.15590365894360   10.70059653916350
C         7.21469749149906    7.45050481574409    8.38188520436242
H         6.35654963848366    7.28191553642439    9.02906734283686
H         6.86395637227018    7.51738952785371    7.35466663452310
H         7.66759192421080    8.40373009840694    8.65059486271683
Cl        6.66960692531071    3.93416063553691   12.46266619297569
Cl        4.99933007819280    5.47541639823972    9.99167217175142
N         8.41043838130407    1.81592323653929    9.26086741085206
Ni        6.68603384754477    4.17152209662420   10.31442030910133
P         8.23489723467268    2.77561514660715   10.73711563540064
P         7.01988515556218    1.25587102616025   11.62852188481479
P         7.48587048610492    4.63358994306737    8.36458139550339

