62
CSD_code = FAYBIS | q = 1 | S = 0 | Stoichiometry = C27H28ClN4PRh(1+) | MND = 6
N         6.26558838432307    3.54876724361191    8.88397574050993
N         5.42689531344001    4.64931619267864    7.17456983965159
N         2.76217808079758    5.62912653845160    7.68675022457011
N         2.07633084346009    4.89444298447127    9.59243140429808
C         5.55154683817317    4.60188523588071    8.52600852342536
C         6.62921568573262    2.90140824460633    7.74674420084249
C         6.12728888355387    3.58054916241391    6.67717776373443
C         4.84883802509102    5.66994919278599    6.40234873432237
C         5.57833399298657    6.19974880885286    5.34157273540047
C         5.05621259068201    7.21462761577721    4.56419576249398
C         3.79347373710107    7.71656661464566    4.83542214551631
C         3.05254159653498    7.18986678890330    5.87523632867644
C         3.56802644777891    6.16647373098465    6.66246054880262
C         3.13891299725868    5.39460830103584    8.95727096542995
C         1.44436367426347    5.28711513818844    7.53352237489556
C         1.01815409535449    4.81988239891411    8.73284220282865
C         2.04072945382257    4.50143468692146   10.97417200950562
C         4.98434808373283    7.33427702228080    9.05696410297828
C         6.05839272679506    7.73139960695040    8.27081762690284
C         6.06041173602802    8.98632447019193    7.69007560503636
C         5.00417479816988    9.85608519317729    7.90356484416106
C         3.94704161377139    9.47572854534446    8.71425912926304
C         3.93728224936545    8.21943349436449    9.28996299381255
C         7.76626382632536    3.58874883261566   12.71142335582984
C         8.48438116687656    2.26893494384180   12.84889886843616
C         7.68510182034483    1.07519474995479   12.29225603075596
C         6.81404625713639    1.47308747010813   11.12249427579767
C         5.48322158990721    1.85556117193231   11.26120481738614
C         4.76590479209837    1.94357328976828   12.58929279305375
C         5.53389348956069    2.76701579597546   13.64206774058379
C         6.43319327658049    3.81408866175802   13.01902027845678
Rh        6.64592745400950    3.59149629680004   10.89762326870155
Cl        7.15434126657785    5.80095904781396   10.51250198793396
P         4.89535111310576    5.67999010428791    9.84277980180905
H         7.22357892625910    2.00953665810649    7.75490644427625
H         6.19340929955851    3.38377524553994    5.62735497598137
H         6.56900918786422    5.81861945326130    5.14710128015228
H         5.63869963026301    7.61890317156151    3.75211482466492
H         3.38592925684711    8.51684896701257    4.23945321553740
H         2.07077028725082    7.57856828260818    6.09742815827953
H         0.93183417513846    5.37852444215771    6.59845030469123
H         0.05925721328619    4.44710485941467    9.02906069996680
H         1.39912110233133    5.17617064476805   11.54288633577262
H         1.64781746060001    3.48824510552619   11.06120328946737
H         3.05247254184738    4.54119358925111   11.37783071370412
H         6.89773667896192    7.06705195796194    8.12229254981241
H         6.89415918987696    9.28817581152699    7.07457266753610
H         5.01190877755969   10.83577880760172    7.45161268393468
H         3.13438846390526   10.16091444141352    8.90260012213922
H         3.11987059773706    7.92001195016875    9.93323297911099
H         8.43688034127809    4.44877449181377   12.69381644789460
H         8.72716435297344    2.10185298112135   13.90259427427058
H         9.43087232121395    2.34493400689916   12.30873052302142
H         7.06033094844125    0.63527073122498   13.06930015028991
H         8.38818021500321    0.30702972774205   11.96816913704926
H         7.12575359440479    1.06355741987942   10.16264638053896
H         4.81529046634338    1.68708193206084   10.41378332076747
H         4.58928690869949    0.93055989424455   12.96372090068554
H         3.78688603926856    2.39745866206362   12.42379657380674
H         6.14019524663660    2.11354489048821   14.26882773459908
H         4.81416889881014    3.26180890074597   14.29533861950710
H         6.12891997689357    4.84573539760360   13.20106566671873

