102
CSD_code = FAYDEO | q = 0 | S = 0 | Stoichiometry = C57H41P3Pt | MND = 4
Pt        2.39044917896198    3.24142079042924    2.55733786136440
P         3.95225705093918    1.67618303729947    1.76805200101284
P         2.14078692804502    4.45312959956342    0.57518884231863
P         1.14824111662414    3.63155138773704    5.04516636494471
C         5.23464692529427    2.78943951936847    1.10399831267727
C         5.99770480294550    2.57675727984683   -0.03471606241765
C         6.96045647517532    3.50256024255340   -0.39864312809707
C         7.16733459724401    4.63852396500269    0.36512497872428
C         6.40070834861525    4.86181278282374    1.49778935403571
C         5.43735345041729    3.94173239088831    1.86236993018581
C         3.43723146870659    0.60546081770761    0.39284634270254
C         2.10930546845930    0.69294726221360   -0.00735675907403
C         1.63850793549937   -0.07490944280940   -1.05702212661387
C         2.49838843176372   -0.94236732247428   -1.70968826571567
C         3.81707181031203   -1.05676893224098   -1.29541610672901
C         4.28832788211428   -0.29444886919150   -0.24237040180371
C         4.98219254470100    0.51770316230744    2.72174293097833
C         4.51783168198615   -0.78121220985883    2.91340679868106
C         5.27556404703838   -1.68923632014328    3.62691414109463
C         6.49196059551351   -1.30622535764993    4.16786173244069
C         6.94640430626781   -0.00906639922222    3.99750443502440
C         6.19607462826799    0.90352796938190    3.28037341215415
C         0.59968602414328    3.98913233474773   -0.27154807803553
C        -0.31393353395701    3.20531549117664    0.42507846145041
C        -1.51889818917344    2.85358363287701   -0.15468180552314
C        -1.81626010782309    3.27838769165720   -1.43887305220688
C        -0.90306726505626    4.04632228109825   -2.14443134602101
C         0.30264230711262    4.40199723662208   -1.56773544755379
C         3.30699651904584    4.52748048887932   -0.82783595367266
C         3.35217313201239    3.46117049142176   -1.72294359064897
C         4.23163051576193    3.48098848648798   -2.78752466663551
C         5.08145894292688    4.56088630742939   -2.96632395095235
C         5.05212484324424    5.61595618719710   -2.07058283929802
C         4.17350407713711    5.60035349372464   -1.00235538590885
C         1.91978645530869    6.22251728809172    0.95146634572850
C         2.71534665130639    6.74286474663853    1.96963174206506
C         2.60695590271245    8.07153610423022    2.33153336372136
C         1.69565663884583    8.89028357369623    1.68371851607919
C         0.90039077470954    8.37678601636336    0.67356634405834
C         1.00861375803806    7.04630342626635    0.30492249992160
C         2.25779026622050    2.30797195677862    4.45071000207899
C         1.79462516955374    0.90512045228346    4.47326328203318
C         0.67832525008069    0.32050318213310    3.89533431049099
C         0.47762081813936   -1.03920551189574    4.05730097865698
C         1.36771629517577   -1.81269847565387    4.79268680870063
C         2.48826338878797   -1.24356244935722    5.37061150449999
C         2.71121938241493    0.11357474042610    5.20178315339610
C         3.79185823185429    0.96369898466513    5.65493580034473
C         4.92833384965822    0.70310601586909    6.40342318429074
C         5.79573070577123    1.74567979737949    6.68041335452147
C         5.53273349343578    3.03620469154219    6.23599966074559
C         4.39202958250425    3.31213784428178    5.50248861503367
C         3.52951764504573    2.27136482694063    5.20249160436036
C        -0.29422663422388    3.44016439235086    3.83845116236205
C        -0.11992151906904    4.81907635155407    3.14678560982938
C        -1.18889100065900    5.57027921835947    2.75442446683485
C        -2.44309963119220    5.32570029770917    3.35466326673163
C        -2.53166273929424    4.52081402387585    4.46775149694803
C        -1.36871086992500    3.85773404277111    4.85749960830040
C         1.21353915690168    4.70636330075591    3.44543445141447
C        -0.50173556616268    3.31368320616498    5.71135892487822
H         5.83555702500613    1.70148126264236   -0.64557530513656
H         7.55302848289538    3.33452324001767   -1.28597088144821
H         7.92292593957075    5.35317185815646    0.07444972183303
H         6.55644705753547    5.75083577571967    2.09142912351860
H         4.82974271381045    4.09012539096485    2.75494941767184
H         1.44904707069611    1.36732449294323    0.52555244386379
H         0.60539666923536    0.00435025369762   -1.36275372420884
H         2.13968957112056   -1.54185933840506   -2.53333706110597
H         4.47930423360732   -1.74991852897717   -1.79374478028246
H         5.30723880940176   -0.41105394592245    0.10057540809863
H         3.56253849562246   -1.07555213481159    2.49977347080400
H         4.91255038492027   -2.69709384508044    3.76448353893240
H         7.08377702900632   -2.01705311428732    4.72561038809213
H         7.88984600117841    0.29491818119966    4.42629548752410
H         6.55444140877292    1.91508094155149    3.15442583160863
H        -0.02839692825922    0.91869987043236    3.33683117505323
H        -0.38869208601576   -1.50647575385191    3.61076192287441
H         1.17940558323653   -2.87029241173540    4.91378228698227
H         3.18116107200545   -1.84423209595490    5.94233414487702
H         5.13294273488688   -0.29363814819473    6.76656556639533
H         6.68760074976840    1.55805460483855    7.26149318224333
H         6.22186827624494    3.83293358846629    6.47857896377945
H         4.15849501257550    4.32217137836225    5.18220610515347
H        -1.06635651536606    6.37046878374146    2.04038441161408
H        -3.31193044753473    5.86222265583578    3.00176374531938
H        -3.43788662559929    4.43678686663865    5.04582518312506
H        -0.07472781441398    2.87515457978171    1.43147318688265
H        -2.22486384518119    2.25087317934840    0.39675195249625
H        -2.75763779947917    3.00849293293183   -1.89442055939363
H        -1.13233071732023    4.37121619389416   -3.14915600707042
H         1.01847038338873    4.98986521430091   -2.12657297764773
H         2.68463139934888    2.62143869596281   -1.58616101951684
H         4.25227397504234    2.65264866029777   -3.48085101104209
H         5.76460130022123    4.57942316262172   -3.80250400544754
H         5.71457042089951    6.45834837908923   -2.20563593322263
H         4.15217447921792    6.42776304534156   -0.30748898260875
H         3.41283118204103    6.08857356430234    2.47856373937073
H         3.22241014963736    8.46847364901370    3.12529450518023
H         1.59967234935646    9.92667309694880    1.97176700614483
H         0.18385959291635    9.01293121512281    0.17414899192821
H         0.37206083282954    6.65035308113667   -0.47305564482678

