125
CSD_code = FAYGAQ | q = 1 | S = 0 | Stoichiometry = C68H50AuO4P2(1+) | MND = 2
Au        3.53116906918029    6.22959581404938   24.77183986226481
P         2.07890199361237    7.07573460341754   23.23820518541564
C        -0.41099121373577    8.48074148452432   23.46028891735159
C         0.89974060131145    8.30461802483030   23.85161333765764
C         1.47635694391241    9.13130102563893   24.83966489259921
H         2.51091141264222    8.95446605706918   25.11263477390972
C         0.75899066159656   10.13322067456157   25.41924419007316
H         1.20690745348191   10.77122186617753   26.16638628710996
C        -1.36439619613397   11.36127211736691   25.64561831305125
H        -0.90367162361979   11.99610390579867   26.38809061918291
C        -2.67186769168938   11.54054449596411   25.28839372083431
H        -3.25887002609709   12.32258963644369   25.74525350332125
C        -3.26219806471526   10.70635367950030   24.32673342831459
H        -4.29735786728448   10.85531733919208   24.06014295752433
C        -2.53662440980105    9.71277501350777   23.73038665119313
H        -2.99111864463010    9.06998879971122   22.99151793126139
C        -1.18229098228851    9.50564965034318   24.07148155155989
C        -0.58924172396026   10.34304303154143   25.05481297085338
C        -1.01232527907891    7.65314870382543   22.39218158195714
C        -1.03111189782529    8.12915171189059   21.10547851267372
H        -0.63908455005315    9.11328361898411   20.89321345675478
C        -1.54263597166331    7.35000751535281   20.05843796751667
H        -1.53651876773847    7.75054264676148   19.05626574536807
C        -2.03188505216886    6.09970680722713   20.30687811668007
H        -2.41385235142832    5.48753423347172   19.50329253035103
C        -2.57812807309932    4.30589368796267   21.90591097260025
H        -2.95821754347696    3.70891607922556   21.08980370369920
C        -2.60667839920928    3.83114025193455   23.18660063914977
H        -3.00919100178986    2.85174608329982   23.39736619402275
C        -2.11646707440607    4.61666687338514   24.24135001858548
H        -2.15345492694329    4.22801948555214   25.24841368721040
C        -1.60231266609125    5.86032275046433   23.99914116835750
H        -1.22266171106308    6.46523240521607   24.81138750911339
C        -1.55796706713899    6.37642471224430   22.68724618426773
C        -2.05983996637526    5.58641014564346   21.62085841208577
O         1.12539536277413    5.97525906376362   22.57855648260721
O         2.86277614077316    7.70269932023089   21.98187396852354
C         2.18069288502870    5.31207265862695   20.52310814910964
C         1.75631230163665    4.98829135267154   21.80978532815179
C         1.88012817098754    3.70435535503558   22.33152682414890
C         2.46008241176567    2.73021225217594   21.52897972310571
H         2.56487652295777    1.72738225218989   21.91381863252101
C         2.90086809548308    3.03100114593767   20.25170682422456
H         3.35328357821169    2.26220189700154   19.64472693808594
C         2.75680412080640    4.30895057925696   19.74695187624329
H         3.10261507218096    4.54500467628381   18.75267187767388
C         1.38867879585461    3.39716489660768   23.71181565759114
H         2.03986614181408    3.85421188670677   24.46192271186514
H         1.37347852133208    2.32477350924795   23.88275354237135
H         0.38636443996895    3.79658050022543   23.85729836079094
C         1.98254984498066    6.66629076333152   19.97595774395084
C         2.27465546542154    7.81470189660678   20.71250252946096
C         2.07823883838472    9.08961956084710   20.18883815977200
C         1.59689949717087    9.19998212256857   18.88979126256810
H         1.44558761818298   10.18308873234774   18.47031604079949
C         1.30774025620697    8.07473512619990   18.14035273700171
H         0.93114519729464    8.17902819575289   17.13459922128324
C         1.49609507826794    6.81727358128338   18.67991458626277
H         1.25071779327589    5.93630943332095   18.10781406232798
C         2.39316832724175   10.31082279503706   20.99454210995107
H         2.17525036486641   10.15297663519507   22.04984655050373
H         1.82073550521732   11.16237495310369   20.63631747364562
H         3.45160732367040   10.55347545847246   20.89872395551228
P         4.70684813133340    5.18828407530395   26.44065179669932
C         6.97547314217027    6.69410689064596   26.77195998562638
C         6.18295196755934    5.72256191898517   27.34229956923051
C         6.50882489962506    5.15298371571169   28.58991317910349
H         5.86918150048033    4.38995541081267   29.00868685373793
C         7.62787493220267    5.56938423128770   29.24908371152589
H         7.89196452176344    5.13561629443536   30.20211303656980
C         9.61266386020861    7.02697070992672   29.38129050656480
H         9.85761559277389    6.59006611009224   30.33808538010023
C        10.40372710630269    7.99996358489434   28.83603009359562
H        11.28367131871182    8.34168690048706   29.35928775125014
C        10.08171543940677    8.56238087887364   27.59087294111302
H        10.71918716745923    9.32722807216488   27.17411507391361
C         8.97258331029151    8.14644296052078   26.90898979219787
H         8.72116243968279    8.57517308799193   25.95018103090589
C         8.13343140222034    7.14840691950083   27.44881654916280
C         8.46016193420211    6.57444028641202   28.70721370881751
C         6.59807965749145    7.21320154202977   25.44245405280301
C         6.87119516675447    6.46538238003533   24.32284911250343
H         7.39658346104817    5.52636174607946   24.42339661159191
C         6.50281191337090    6.92079124681650   23.04814591048518
H         6.73690143531276    6.31600300151983   22.18518617398458
C         5.86707744268731    8.12156555222497   22.90144660795377
H         5.59241023591553    8.48189462529528   21.92159922454329
C         4.90477958506855   10.15852917180592   23.90775874238985
H         4.65335182189113   10.51510785280393   22.92097599487156
C         4.59925227820427   10.90123085281671   25.01379209615385
H         4.09851516820197   11.85208436364573   24.90996635586400
C         4.93750156746766   10.43491206955433   26.29364712705507
H         4.68920088834345   11.03093407510969   27.15894270512328
C         5.58631827590374    9.24094194598083   26.44582274709449
H         5.85668522068299    8.88629230216204   27.42985590932795
C         5.92023918864705    8.45508391190190   25.32209781836666
C         5.55974272899258    8.91540480549351   24.02748919409391
O         5.00002924773339    3.70625688070361   25.87557796610459
O         3.77523616547337    4.91357832137382   27.72653303680909
C         4.03147925496339    2.13183472692643   27.42928144687188
C         5.14750433927578    2.62024342062104   26.75040572984156
C         6.39640856828818    2.01384269913832   26.85218359454749
C         6.51217244706833    0.88994437480788   27.65974621310329
H         7.47367644972678    0.40917576216292   27.75417629992018
C         5.41731818514124    0.38680319292622   28.34064650490524
H         5.52713473385055   -0.48493572362053   28.96652552386773
C         4.18408101201192    0.99869419310655   28.22414114878554
H         3.33111349142630    0.61827913414171   28.76430342454153
C         7.56585579786768    2.56972362715152   26.10238556763510
H         7.34879174187383    2.59970427374765   25.03524486028349
H         8.45010708620932    1.96093425657892   26.26601762800648
H         7.77809611595161    3.58841043892912   26.42954439399252
C         2.71737085725636    2.79491273058522   27.33005934797967
C         2.61157144133214    4.17734509977297   27.48199731688279
C         1.38397936519779    4.83281772454915   27.45191876505406
C         0.24260897011894    4.06526328764464   27.25699966760706
H        -0.71821930373443    4.55631318994827   27.24476534728957
C         0.32535671250712    2.69383323454190   27.09300576664592
H        -0.57206605453986    2.11470408323447   26.94030410140728
C         1.55216000471532    2.05871695126748   27.13754712136071
H         1.61990276561634    0.98907214169394   27.01428180254170
C         1.30513831606183    6.31156881958485   27.67101051400585
H         1.52531440720174    6.54351051452480   28.71284912528633
H         0.31180814148132    6.68360050702208   27.43506641757421
H         2.03535397321373    6.84135311086332   27.05571519903216

