58
CSD_code = FAYHAR | q = 0 | S = 0 | Stoichiometry = C32H21AuClO2P | MND = 2
Au       -8.26257591477555   13.16755822288254   24.04921924186503
Cl       -8.61101963627932   11.07383036578210   24.81293051189878
P        -7.91528496403777   15.23509226890464   23.24166398150710
O        -9.05424970111138   16.24013207931709   23.80875096186215
O        -8.18362194257689   15.29276621363451   21.64775139511008
C        -6.37221415432548   16.19097561773255   23.26351578812127
C        -5.95862213576316   16.99760324890047   22.18686242329281
H        -6.57798143784590   17.06207819271415   21.30490513302510
C        -4.78249154416384   17.68460545319060   22.26950069561495
H        -4.45701489518077   18.30958819310728   21.45039289037156
C        -3.96482041675031   17.59277632388268   23.41744337013390
C        -2.74249183414426   18.28863956203647   23.51869888778479
H        -2.42889142482210   18.90696314895658   22.68998647759539
C        -1.96911161783422   18.18299220496180   24.64096264323427
H        -1.03425984589246   18.71928124935571   24.70972073362685
C        -2.38182575720476   17.37851959988171   25.71468616342612
H        -1.75882351598259   17.30759039700362   26.59365418388055
C        -3.56144528942252   16.69147493932432   25.65102857639530
H        -3.88558932230572   16.06996212437229   26.47254617105306
C        -4.37939998941320   16.77816544128041   24.50445398889021
C        -5.60658996546726   16.07938811705298   24.40440110030573
C        -6.12479165827506   15.23713493372530   25.50058789449230
C        -7.11813711091775   15.72277328957555   26.31566263274525
H        -7.46768457500829   16.73756602426500   26.18660498885961
C        -7.66947769547997   14.92402954738318   27.32770387807864
H        -8.45235767159740   15.33068750318668   27.95035739224743
C        -7.22858310905800   13.64458118806886   27.51302421138696
H        -7.66134380352917   13.01810769987884   28.27859257668480
C        -6.21105367457490   13.10623386851726   26.69684205637610
C        -5.76188928364527   11.77883826254413   26.84814811523213
H        -6.21072760162984   11.16641399853689   27.61541349226102
C        -4.80092143806047   11.26874390552068   26.02196902918832
H        -4.47440439999138   10.24578392563220   26.13275980140189
C        -4.23963623660276   12.06524407947462   25.01303025363158
H        -3.48484820328099   11.64637195295161   24.36351493399237
C        -4.64830545534864   13.35837100121385   24.84173866888174
H        -4.22031302774482   13.96964037564285   24.05912692200380
C        -5.64281998513570   13.91226091626426   25.67479600540602
C        -9.44212288226126   17.36117178831693   23.08013703777134
C        -9.13004199241336   18.61650917079853   23.57431557392470
H        -8.53470751161578   18.69181389337193   24.47134151472690
C        -9.58736450835364   19.74787231244288   22.92181965606333
H        -9.34198682981933   20.72448418708746   23.30958016235417
C       -10.35379857949758   19.62175482636626   21.77541340676181
H       -10.71273127238855   20.50233987438552   21.26495917419920
C       -10.65457614258210   18.36760574012535   21.27751670462736
H       -11.23513742803552   18.26634437510979   20.37288363952770
C       -10.19777512414594   17.21705690903092   21.91401049180333
C       -10.49420774814704   15.88044206662929   21.37049505148639
C       -11.76825542759640   15.53128731187019   20.93369301546030
H       -12.56558986827655   16.25505269834724   21.01134993929583
C       -12.01891540057755   14.26520018339941   20.43698664778630
H       -13.01523138973133   14.00446854297406   20.11435059145573
C       -11.00044949981542   13.32947881867251   20.36228864505716
H       -11.19739311464417   12.33802578338976   19.98617638890744
C        -9.72324368088897   13.66052835637984   20.78238380838190
H        -8.91370053526588   12.94836839332664   20.73493655769125
C        -9.47675082875292   14.93062933134300   21.27141382085741

