50
CSD_code = FAYJUL | q = 0 | S = 0 | Stoichiometry = C21H17Br2N3O5SZn | MND = 6
Zn        6.52073768733120   15.67275391822443    8.46864037868583
Br        1.97095429720724   15.45003559513336    7.70369371024930
Br        2.53177859099087    9.91428030117037    6.55213860905847
S         9.38452126037110   15.91852452202330    8.84504587288784
O         4.65533683680618   15.04564691615105    8.81374155370002
O         8.22553689196711   16.26896347820650    7.98968508724542
O         9.12107509140060   16.22256197512313   10.25414186005246
O        10.62097032305353   16.43675728666107    8.33866324103445
O         6.59712644087194   16.53989620279092   10.39754163320096
N         7.08672822446166   13.73855081557181    9.10973661982017
N         6.04273028486496   15.06199201959330    6.42173223013797
N         5.56288229140703   17.37357903260576    7.74064489639007
C         4.25487267307052   13.93953994263660    8.34803884681431
C         2.95496528932497   13.83410060576296    7.77171090471256
C         2.44132958540564   12.68256816921860    7.24509952710464
H         1.45705043438886   12.66477017029496    6.80247873178862
C         3.22239612936539   11.52619343424065    7.29481095072567
C         4.47965837107968   11.54522969619934    7.84308854554097
H         5.07295446703680   10.64227988541663    7.86316274540558
C         5.02418014432984   12.73388012636666    8.34957403039778
C         6.36373288818085   12.71471801369938    8.84345987228164
H         6.78567486898952   11.71118183235959    8.99386638131663
C         8.40900711682612   13.50022200447833    9.63529586091039
H         8.57938307703535   12.41968167739062    9.77239985919901
H         8.48464777093771   13.99678928907439   10.60917642267892
C         9.48741898217072   14.09790987694998    8.75521015183623
H         9.37850659899044   13.83442436161692    7.70800408969825
H        10.47725155863380   13.83167896844556    9.11151990109858
C         6.26461428921663   13.92466057684742    5.80440333471970
H         7.04155067352111   13.29652731706645    6.21707178056947
C         5.55184822382334   13.51354274040462    4.67390464464858
H         5.76172596875106   12.55593612569077    4.22432395115915
C         4.58831077406085   14.34611787500864    4.15958458013364
H         4.01023402380457   14.06504115595377    3.29123331896830
C         4.35879495589274   15.58800202702687    4.77410189627151
C         3.40237590661665   16.52494328272860    4.28807125391085
H         2.83243203863965   16.26059283029575    3.41000860799652
C         3.21493584258360   17.71324162739212    4.90918642819272
H         2.49247900648308   18.42404455493088    4.53764745622900
C         3.94858114750379   18.05163954272687    6.08215403793104
C         3.76679969140303   19.26160057925179    6.77241702041941
H         3.05332742333008   19.98322187842338    6.40224086225297
C         4.49640473463134   19.49540253643150    7.91151792506852
H         4.38477723188718   20.41336708009551    8.46649053630336
C         5.38125487996909   18.51147687692882    8.36741599186283
H         5.94986307027966   18.64829360786419    9.27478552570314
C         4.88657501977945   17.13722551362685    6.60961378931225
C         5.11626651771684   15.89547402186758    5.92763048521351
H         7.59287446267629   16.53035156271761   10.49080871778179
H         6.24136594093970   16.00238656931939   11.11068534137690

