32
CSD_code = FAYLUP | q = 0 | S = 0 | Stoichiometry = C13H10BMnN2O3S2 | MND = 6
H         0.97066013527244   11.02756913454371    7.41775230199177
H         0.58043341424095   11.26784383040046    5.47910412059251
C        -0.12562454890934   13.07298796852420    3.72190966579226
C         0.31881324506138   11.26635464906459    1.90796930093363
C        -1.38759958148180   10.75674149274473    3.78099742187465
C         2.93333327298927   12.92874351817163    5.22102017242590
C         3.82671789724854   14.01873856249092    5.30141707438111
H         4.32198360291741   14.31636294777395    4.39140440539294
C         4.01927695498190   14.67828524405783    6.48133544590050
H         4.68731117878953   15.52319011797962    6.54091070728383
C         3.31521207229168   14.24710466792999    7.61666887002507
H         3.41683056898437   14.75276864880769    8.56195757280456
C         2.49437235812422   13.16126275626718    7.50246170755253
H         1.94056976113219   12.78575244421268    8.34955419770164
C         2.35567274418682    9.09604690225971    5.06912482961472
C         3.28388513380919    8.02830532513259    5.00763534829047
H         3.16972312481009    7.33122396660435    4.19321253675339
C         4.28189977434658    7.90598768947165    5.92786596659155
H         4.99528846017277    7.09894422733741    5.87028745379187
C         4.36419582239520    8.85879750427290    6.95661061420876
H         5.13499796895370    8.80747780344564    7.70696836932858
C         3.43767568608640    9.85881917303509    6.99071869127702
H         3.45689368199440   10.60533817529156    7.77112320909440
B         1.47059117784590   11.18477437653265    6.35405639184570
N         2.31297527390489   12.49120090501208    6.34897609581303
N         2.45293987193941    9.99804921990041    6.07903298114374
O        -0.34108900425202   14.20353865695398    3.74486617959379
O         0.36005397654430   11.19506719144641    0.76721015444660
O        -2.46457179275677   10.35938161397464    3.80345580906671
S         2.71484943084706   12.20071342335396    3.70265129978426
S         1.16711508068005    9.10320364796323    3.85568632215850
Mn        0.29871325684387   11.34182421505025    3.69355478253897

