58
CSD_code = FAYMUQ | q = 0 | S = 0 | Stoichiometry = C27H23BMnN2O2PS | MND = 6
Mn        4.88776426330341    8.95330308994005    5.75502391577136
P         4.64646702856792   10.93458396686615    6.83424435701422
S         9.30164867877375    8.20820256248703    6.80936808355363
N         6.87707505869386    9.17236317489834    6.00836932632672
H         7.43529633865327    9.99922118829545    5.80517487234296
N         6.98625021428734    7.01301141435404    6.80138511117892
B         5.49226407370821    6.92242169255523    6.56803055630811
H         4.93561993444427    7.87871942971477    7.21262806536792
H         5.05081510278567    5.85919418424167    6.81847992776737
H         5.27871413442299    7.28846353071651    5.31421823203600
C         3.15245863956434    8.68996939243949    5.50686215003287
O         2.03595210893036    8.51769644570871    5.25598794436295
C         4.81095244013053    9.61794985629619    4.12107884968304
O         4.68086241593266   10.01700283254574    3.04145124533885
C         7.55802737071813    8.18516178941120    6.48553231005812
C         9.19556698140397    6.54952625309273    7.37026043225139
C        10.22553410603422    5.75805262536513    7.83785751761136
H        11.23114405610001    6.14487024447783    7.88812630888063
C         9.92842688872833    4.46578624868403    8.23400762185711
H        10.71706267792734    3.82798420072933    8.60175899196423
C         8.62664858131378    3.98767434256367    8.16002846122155
H         8.41268505169084    2.97695363355599    8.47233719907964
C         7.59632778530071    4.78200959125910    7.69276177127142
H         6.58738810580715    4.40842363167622    7.63554877211172
C         7.87535967519731    6.08128769656384    7.28921970179626
C         4.60222819966824   10.83045143449518    8.66047190221390
C         5.58350507274663   10.04817889710185    9.26664733003337
H         6.31619221104710    9.54099922472657    8.65090669076896
C         5.63435684502103    9.92299245754667   10.64130502677729
H         6.39890155526209    9.31347597615435   11.10115027952734
C         4.70010317211641   10.57854310961683   11.42773731776761
H         4.73259233429783   10.47772591013167   12.50240849243468
C         3.72732473200213   11.36443491106173   10.83310550375409
H         3.00311841218899   11.88191061489637   11.44513080380418
C         3.67534793974783   11.49515747853214    9.45573743715965
H         2.91759547081849   12.11628480106548    9.00103721477835
C         3.15780346814215   11.91395379166718    6.45531966317909
C         1.92901257964619   11.33047966963410    6.76406441709970
H         1.91188884834225   10.35804279222392    7.24056305067145
C         0.75167866951507   11.98793298214911    6.46751739107780
H        -0.19636581947471   11.53079659454116    6.70866417506930
C         0.78946839512881   13.23023525909878    5.85248428850592
H        -0.13068033606487   13.74241338467619    5.61342869080223
C         2.00637279315867   13.81168049223400    5.54183583329253
H         2.03638161596406   14.77863537888651    5.06127966364541
C         3.19079755323852   13.15910784715693    5.84043518472129
H         4.13615766035253   13.61955134720261    5.59293588647904
C         5.97850808969391   12.16568674871353    6.60333316993998
C         6.54946048026171   12.88235383694197    7.64896482429794
H         6.20823876167701   12.73163023765861    8.66313309132355
C         7.55952653667272   13.79411922674754    7.39158148786955
H         8.00050456725592   14.34595935737688    8.20886608690980
C         8.00468931314974   14.00034917714509    6.09682195369481
H         8.79482071171014   14.71053293976844    5.90346141878558
C         7.43552217429496   13.29253754980793    5.04925407277419
H         7.77791703207334   13.45163449255682    4.03732089036481
C         6.43046225260151   12.37764889524157    5.30120255155915
H         5.98055699533009   11.81513016487493    4.49265248377529

