77
CSD_code = FAYTOR | q = 0 | S = 0 | Stoichiometry = C31H36BCl2N3NiOP2 | MND = 4
Ni       -0.18875087110360    7.30156858319726   11.23858968654955
Cl       -2.11427366728348    6.92201330848836   11.98263399257232
Cl        0.85429923985207    7.24083203800989   13.05332870207748
P        -1.29511186251936    7.47353979839643    9.44710121647890
P         1.76818873730151    7.48483028781051   10.47174915967495
O         1.12776261041451    9.41236200864215    7.18638074319154
N        -0.46754679735032    7.66992202132001    7.99033984019621
N         1.97988904698679    7.72553461318284    8.81721725699131
N         1.43499954040628    7.13347287921907    6.41534560929232
H         1.32885325551938    6.17556724877400    6.74701385583014
C         3.36542068582719    7.94076073118615    8.40419066301381
H         4.03111325081490    7.71138687517993    9.23701687006221
H         3.51572716122152    8.98938580453939    8.12117021203136
C         3.74276237811691    7.05552668025183    7.21921003139744
H         3.65534776289418    6.00476257760158    7.50341496352344
H         4.77925464933893    7.24775345025975    6.93903059891551
C         2.83229784442248    7.36373963790579    6.04453791114622
H         2.91759969879358    8.41945164253081    5.77925873382992
H         3.09299965918296    6.75075459245445    5.17250563352335
C         0.54778376634255    7.34721323827589    5.27073152867152
H         0.88318889812868    6.74094831660517    4.41978905960381
H         0.62011845010566    8.40470939209213    5.00947869678873
C        -0.88207292682415    7.00879546492812    5.64984133787772
H        -1.53935174707788    7.18767084421820    4.79792873086521
H        -0.96225981247285    5.95524725935890    5.92727196182456
C        -1.32418092868169    7.87769112093068    6.82436526386215
H        -1.30287791494321    8.93004263475356    6.51867463463999
H        -2.34953156188490    7.60861483517841    7.08200073252805
C         0.87008213707508   10.50151555473037    8.02550374266502
H         0.93366279142508   11.40778447618072    7.42061367317007
H         1.60331740569914   10.56072613141258    8.84026020537325
H        -0.13080629603489   10.43667452254118    8.47213334763499
C        -2.35156689698461    8.97052540364739    9.61145175261741
C        -3.46412039115319    9.28739500901299    8.84059983936834
H        -3.85019977508332    8.59141020492191    8.10989171995888
C        -4.11492127973883   10.49647284666515    9.02278781273806
H        -4.98366571580305   10.72810794629790    8.42323359630161
C        -3.66676280125333   11.40198407910327    9.96867614744416
H        -4.18182136929856   12.34133785864401   10.10549112220540
C        -2.56668165821278   11.09069435864958   10.75165129070757
H        -2.22252818788119   11.78223456156681   11.50642472505319
C        -1.92001383951820    9.88466180064805   10.56965920026890
H        -1.07990414367806    9.60991476481836   11.20981210072320
C        -2.40990367770925    6.09518315876481    9.02117171037895
C        -1.83874512730405    4.97731889932996    8.42296782924966
H        -0.77532637828862    4.98323842857836    8.21875930821191
C        -2.61051981462155    3.87160638735033    8.12000258323242
H        -2.16009172405713    3.00361211630992    7.65906285665800
C        -3.96230073628619    3.87292352336619    8.42338766632200
H        -4.56890599210693    3.01054706734456    8.18864894787764
C        -4.52952016126752    4.97088830352049    9.04928268520960
H        -5.57782384308562    4.96103310486547    9.30929826332643
C        -3.75756941707550    6.07669701321049    9.35820574491839
H        -4.18936815433947    6.91418673828180    9.88479618864214
C         2.80450376125091    8.79278061956789   11.23418554296612
C         4.16077551659933    8.68852856356742   11.51908499245364
H         4.69407374960812    7.76571366666583   11.33670715537753
C         4.84191921801379    9.76598268155270   12.05977430592777
H         5.89449980973440    9.67165902147839   12.28534791848192
C         4.18334024393017   10.95587746142415   12.31659761578864
H         4.72013552076483   11.79067526227061   12.74252474397789
C         2.83184783432741   11.06861182416266   12.03408590633100
H         2.30927857203588   11.99149105314238   12.23909613907360
C         2.15182129945175    9.99263517731645   11.49781446601798
H         1.09066131672047   10.06439362898702   11.29255359692867
C         2.65770603682989    5.90852090810408   10.73192706913833
C         3.37232806673290    5.61310122146620   11.88799091866112
H         3.43273615379336    6.34214766129364   12.68150323719130
C         3.96423405735993    4.37105457847002   12.03545514850907
H         4.52335647428022    4.14977998017645   12.93274754669303
C         3.83107107348672    3.40755461269001   11.04923846070334
H         4.29339936958960    2.43897094109901   11.17134056910324
C         3.07976103870977    3.67898471397638    9.91739514986966
H         2.94439533998780    2.91717597805379    9.16203923665901
C         2.49287459658144    4.92088112470937    9.76599665374424
H         1.87646022286315    5.14010891129137    8.90300026511091
B         0.96997722840171    8.09149826347690    7.75180167407914

