77
CSD_code = FAYVOT | q = 0 | S = 0 | Stoichiometry = C31H36BCl2N3OP2Pd | MND = 4
Pd       -0.26353184612801    7.38589412348138   11.31580005437957
Cl       -2.35535596641315    7.25258908591413   12.20852170409176
Cl        0.83861195913777    7.02695679939045   13.27437069472027
P        -1.40651460111244    7.64017561736149    9.45219169085796
P         1.77573114982116    7.41763412592317   10.47928226765646
O         1.11107172404744    9.40769317954482    7.25422689555105
B         0.91679292472742    8.07678786308170    7.77594559298499
N        -0.53991275560328    7.69278140542578    8.01249487883921
N         1.93733300023149    7.65872307486564    8.82558373400592
N         1.35559428834334    7.13257265977085    6.43003977268515
H         1.25178248353747    6.17409144582680    6.76146611886539
C        -1.39745380591841    7.88303569352368    6.84144229200623
H        -1.38108868813858    8.92984805969838    6.51599967580736
H        -2.42065751275257    7.61471292049197    7.11249954761859
C        -0.96099182585444    6.99328856865641    5.68315278622709
H        -1.02465380287409    5.94552726982833    5.98631681391283
H        -1.62779045873772    7.14560166211453    4.83374842834829
C         0.46112831113564    7.34303930099998    5.29019740351752
H         0.79588918718031    6.73953988289616    4.43753356729159
H         0.52433363690792    8.40114444615069    5.02854487482725
C         2.75016709716369    7.35654709050758    6.04108984743523
H         2.84471027644780    8.41808753119292    5.80441551158547
H         2.98676784050130    6.76442690708044    5.14856994021337
C         3.67243259951950    7.00132880401373    7.19154592819061
H         4.70835163930406    7.18165828539635    6.90217437930943
H         3.56805242480854    5.94529258232967    7.45017830452775
C         3.32450059337819    7.86077178183696    8.40247776507213
H         3.98894336313406    7.58887423075313    9.22327845960725
H         3.49449638152893    8.91386121244165    8.15081090892034
C         0.86126156609648   10.46804689959442    8.13374766910418
H         1.08468292698539   11.39580820774533    7.60470966682816
H         1.49203599926999   10.40043923246061    9.03049400205844
H        -0.18817365880034   10.47971948471130    8.45784493386162
C        -2.46235102761315    9.13903390842490    9.54257586975509
C        -3.56738078405674    9.42240492603330    8.74639974631159
H        -3.92349803316757    8.70898661217914    8.01703135207369
C        -4.24736500320927   10.61933493736039    8.89893105872787
H        -5.10923477165146   10.82448242680072    8.28018881562618
C        -3.83695699840770   11.54493368576206    9.84246723061003
H        -4.37560197414439   12.47370116601416    9.95896033818480
C        -2.74454371020956   11.26767525336093   10.64885796946160
H        -2.43154310237176   11.97685500222510   11.40065602834080
C        -2.06571726991682   10.07427665359491   10.49692404504331
H        -1.22950924681490    9.82835614768291   11.15752749407297
C        -2.50943701327480    6.22128962165511    9.16933833298718
C        -1.88307111561989    5.04061284421934    8.77791062145684
H        -0.81065206677457    5.05449487255636    8.61337751739989
C        -2.61244517442868    3.87684351867654    8.62992094613472
H        -2.12268234555427    2.96098361329615    8.32977133846601
C        -3.97437318424628    3.88296337959278    8.88877586722784
H        -4.54749104982083    2.97378682538791    8.77959948161991
C        -4.59437556459179    5.04597874014133    9.31484238848314
H        -5.64939407982157    5.04008182452205    9.54625113441629
C        -3.86663108836123    6.21397105373786    9.46456376033057
H        -4.33968089936582    7.10871805027191    9.84079839988799
C         2.75048264410887    8.73529722688511   11.30009089979935
C         1.99596904412121    9.80900856661430   11.76759850227900
H         0.90793838105326    9.76437033941524   11.67305037484151
C         2.60167725901096   10.88906428211543   12.37959002848870
H         2.00390736342521   11.71092100508368   12.74492301915449
C         3.97858798323265   10.90667146644011   12.53655457135900
H         4.45827077669663   11.74539407505125   13.01896382091849
C         4.73645830497374    9.83782839498778   12.09072652194888
H         5.80805356260587    9.84031226028844   12.22916483364519
C         4.12981504497906    8.75560308171349   11.47550853021271
H         4.74007556303212    7.92046898504136   11.15905096704121
C         2.67645566982761    5.85981448535894   10.75627473020523
C         2.45088877244653    4.82512288226772    9.85246291771172
H         1.81233929390281    5.01504468609595    8.99734426643322
C         3.01126509728821    3.57872456167654   10.05622361023236
H         2.83027103357791    2.77823538648070    9.35231812394146
C         3.79267375335775    3.35219879838915   11.17821898294159
H         4.22879304443271    2.37785439585723   11.34352926293023
C         3.99213913890152    4.36740682871417   12.09935689934453
H         4.57707916773545    4.18101023975945   12.98796405459377
C         3.43127881652216    5.61650091576298   11.89869985120832
H         3.54456933726973    6.39248263750333   12.64041938323623

