67
CSD_code = FAYVIN | q = 0 | S = 0 | Stoichiometry = C18H40BCl2N3P2Pd | MND = 4
Pd        2.32948518568954   12.96247028558041   11.45852401918259
P         1.83866822529128   10.78674966368329   11.32435166562034
P         2.61368195006924   13.38588345351240    9.28290645056159
Cl        2.95349213683159   15.13451827042350   11.81817533642848
Cl        1.93872039079675   12.76532700106157   13.70483458421866
N         1.93410837069747   10.08364460225252    9.78535137557876
N         1.95229143278510    9.84471690011147    7.34643048428747
N         2.28169242855005   12.11248949767276    8.21514349442403
C         3.05837717783203    9.94112913745349   12.47253333267011
H         2.71563955410116   10.31005073769052   13.44778929770127
C         4.42603040899080   10.56786268583267   12.19398992693502
H         4.76540587424052   10.31684734871231   11.18804742536459
H         5.16249770345045   10.20138601505394   12.90746243437240
H         4.36870806089025   11.66346178066421   12.30016761201579
C         1.75024255745317    8.63069987370166    9.76369999291914
H         1.42778575801833    8.29063277070376   10.74607986759546
H         2.69959571159206    8.14057906900693    9.51989366659317
C         0.11039075036244   10.33161171030740   11.89176985577408
H        -0.22552467641085    9.46216825773493   11.31287272025735
C         1.46557450378025   14.82298250030338    8.91307454218831
H         1.94491432460886   15.62517677596806    9.48882203756338
C         2.44174854812058   10.16029653678927    6.02108459654460
H         1.59682723792958   10.21617123784588    5.31672944608523
H         3.09771057174153    9.34649786965770    5.67918957621374
C         4.35030114674266   13.90214469510525    8.80004812912051
H         4.54083393020800   13.55932083540633    7.77529489340023
C         3.18231112065764    8.42225109738163   12.54811175885935
H         2.22470846350632    7.93422328884879   12.71496543242018
H         3.82648339079259    8.17319967524468   13.39127481232008
H         3.63883835231099    8.01206959884309   11.65082359962284
C        -0.74892337398849   11.53459496389457   11.50439938336950
H        -0.40949547806620   12.41719198248543   12.05939124610899
H        -1.79688800917614   11.36049691557176   11.74363602577132
H        -0.66087231181032   11.72599252356410   10.43301047408323
C         1.33925405516680    8.53330533843239    7.35743626549015
H         2.09573547797017    7.76806515024732    7.12236624604621
H         0.57502211574733    8.48935508284865    6.56781584793072
C         0.72229559711742    8.24294490287600    8.71158879518918
H        -0.17896118796823    8.84224331503125    8.84885603697301
H         0.46225012144124    7.18733061703592    8.79261544815152
C         0.13197124717924   14.49907071099393    9.58941569444086
H        -0.33602747286359   13.63286886838392    9.11940542155974
H        -0.54894687957899   15.34492656729207    9.50830122093932
H         0.29131564815751   14.29473173149906   10.66076236026031
C         3.18952785845554   11.47915935006139    6.02784361292615
H         4.14976301910596   11.36270240862445    6.53246785907880
H         3.36388888556954   11.82283710800607    5.00804931256767
C        -0.02063117342544   10.03150868390222   13.37921309564502
H         0.51747174185777    9.12881949728463   13.65797735199053
H        -1.07161750574423    9.88917798862196   13.62781886340711
H         0.36228527325043   10.86493013772908   13.96334334293790
B         2.05821520463094   10.69975987862006    8.47454545628673
C         1.22657215917657   15.32630654198375    7.49261548387544
H         2.15368596515772   15.53543037403501    6.96369684117060
H         0.66631413384716   16.25941837756408    7.55013271060243
H         0.63681620908960   14.62199659837401    6.91132352896900
C         5.25857471510995   13.12243032934825    9.75011128313788
H         5.06398848635113   13.44072443180157   10.78116240909893
H         6.30855643333397   13.30497958912037    9.52649845922694
H         5.06152717375073   12.05228027259141    9.65935996847317
C         2.33367588618793   12.47419927535196    6.79675065481342
H         2.74099342766832   13.47818603841870    6.69256469045747
H         1.32271200682545   12.46308591604249    6.37394768038615
C         4.62685443947847   15.39688585602779    8.89467449211536
H         4.05061398339776   15.96121055722578    8.16559055283212
H         5.68385035776918   15.58137009353683    8.70661448655847
H         4.38539117819225   15.75881885301500    9.89125503029485

