71
CSD_code = FAYVEJ | q = 0 | S = 0 | Stoichiometry = C30H32BCl2N3P2Pd | MND = 4
Pd        2.10920032456429    3.93122284263757    5.24508687771728
P         1.01745716711584    4.87459473013409    6.93113215187805
Cl        1.22599802576853    5.42281482245398    3.77997016092506
P         3.04806494288250    2.53827758620480    6.70031780498292
Cl        2.83028434391961    2.58611064176163    3.55267004287634
N         1.75720466768231    5.06288019795462    8.43490205309442
N         3.54135412056808    4.74829247015246   10.08511031533857
N         3.38499821024514    3.10937634517710    8.25728971762502
C        -0.77110222635484    3.24138883205356    8.42140305458734
H        -0.47577236321436    3.80895984679082    9.29223744751211
C        -0.26343352787651    3.58433944612713    7.17375673499966
C         0.85373836645105    7.52119176941550    6.25340755935658
H         1.92952055671858    7.42090178660742    6.17025771306333
C         4.70347792497774    2.14651254411317    6.05154349627513
C        -1.28195646886646    6.49861596879926    6.70663077633165
H        -1.86290872809704    5.63104069477308    6.98872068184148
C         0.10318326194092    6.41658235598952    6.64925770004659
C         5.36585596523954    3.23784823822874    5.49110919292483
H         4.85830813665482    4.20977635597331    5.46348322226094
C         4.51990741923696    3.94658964613419   10.78906590924022
H         4.38782557307780    4.09280075955525   11.86869401014773
H         5.53990661453522    4.26694565084655   10.53058628426603
C        -1.64063181307265    2.17205523695181    8.54924145791432
H        -2.03055201530571    1.90939788278504    9.52225526528718
C         1.25173945730404    6.06348085512651    9.37294354895412
H         0.78775703551005    5.56769476932468   10.23445650467662
H         0.49532062771000    6.68015620458734    8.88344730190860
C         0.22315220333835    8.70933664408460    5.94396521424995
H         0.80257409611802    9.56453514077378    5.62951041890525
C         5.29892046485155    0.89370058739879    6.04610157292399
H         4.77422206241041    0.04166398950260    6.45714489926162
C        -0.63686588000288    2.83975641213233    6.05182326158747
H        -0.25069501920099    3.11101226828299    5.06013395917516
C         1.53514165920731    0.68131921165654    8.15877086423751
H         1.65031527371480    1.35453630255759    8.99717442548775
C        -2.00401654925137    1.43508830052977    7.43502660421540
H        -2.67423186045923    0.59485803735571    7.53924462512125
C         3.32341239128740    6.03733339641171   10.71076169377974
H         4.29268573043777    6.53160824380588   10.86019338203571
H         2.87331442132444    5.88636091185912   11.70452935444739
C         4.33203036977351    2.47900311921786   10.43845574149644
H         3.35105504465951    2.14904037966543   10.78466925181251
H         5.09774882823502    1.87243318887426   10.92212840598303
C         4.41969844028647    2.31638538288730    8.93046849213779
H         5.41631763970952    2.62665314687880    8.59218696671389
H         4.28504069251824    1.26342360383490    8.65950936246630
C         2.17027147234526    0.97119649613066    6.95556519317039
C         6.62327825776170    3.07822171919763    4.94400430358879
H         7.13452112873327    3.91960546677938    4.50030605203927
C         2.41289809270018    6.91637445372357    9.86557445454176
H         2.95590140107204    7.30027592732456    9.00134483662413
H         2.05184594856010    7.75814097746542   10.45644863880842
C        -1.15957058906458    8.79444050222016    6.01441157529110
H        -1.65509721173326    9.71958826240421    5.75969430336415
C         0.75384379094679   -0.45389354420401    8.27080837072245
H         0.26356179898459   -0.67974686165299    9.20678322579460
C         7.21877093341026    1.82500402272707    4.94411861627341
H         8.19612040548310    1.69442808387147    4.50354765967361
C         1.98963693020148    0.13504229213612    5.85531245915335
H         2.45235542325541    0.39909565851838    4.91294666121335
C        -1.50593615162918    1.77265598563676    6.18594092943968
H        -1.78914798405550    1.19712037562770    5.31753751218142
C         6.55727226989418    0.73788217362498    5.48862196107875
H         7.01808103892448   -0.23900439700799    5.47167744206991
C        -1.90832840693231    7.69252704712772    6.39142672740378
H        -2.98580325585386    7.75874841079132    6.43038319877112
C         0.59200394226179   -1.29504293696319    7.18222387114075
H        -0.02233983237764   -2.17889673506210    7.27225129197778
C         1.20707684281197   -0.99790724074128    5.97569632145074
H         1.06858884153005   -1.64724704650031    5.12413929061406
B         2.91312930446915    4.31569415839535    8.90085962154029

