62
CSD_code = FAYXAE | q = 0 | S = 0 | Stoichiometry = C23H30N5NiPS2 | MND = 6
Ni       -1.23855799832894    2.53113446413154    4.46852406441672
P        -2.06055825313510    4.52073998472564    4.25638458302595
S        -0.98929466746802    3.09094522207203    9.26873725408437
S        -5.21741939168277    2.15171072614721    2.44714666608975
N        -0.29179392015415    2.57291245391490    2.20758286755550
N        -0.36547720626826    0.69173544733877    4.36987056651811
H        -1.11892735458598    0.06626484473988    4.65051436449088
N         0.75170609782039    3.08624895509958    4.77631109677555
H         0.65061832127529    3.72925424288354    5.56033391147139
N        -1.47921929502627    2.51715568171169    6.60713855543694
N        -2.81034235159921    1.84996306945138    3.76129118854953
C        -0.36456353191677    1.13757986998996    1.91912074648560
H         0.18702073710924    0.88163435569585    0.99847463624623
H        -1.41764045739037    0.89150497764537    1.76899492091909
C         0.16296568897555    0.26909709796494    3.06848899482058
H        -0.10634375233728   -0.77096794967624    2.85201998779432
H         1.25335810546220    0.31958349840122    3.10181745357267
C         0.64868481715116    0.71597225301676    5.42439751610045
H         1.24449248193368   -0.20827178828534    5.44193097124427
H         0.13243521182492    0.81985545393627    6.38046133686021
C         1.55669482493421    1.93405457333427    5.21576684528346
H         2.08596496782920    2.15263268629763    6.14821841541149
H         2.30907065683035    1.71712327275277    4.45297286607325
C         1.32343033178597    3.80570997474584    3.64365002214072
H         2.40409958540815    3.97058892771045    3.77153993579960
H         0.83777588673050    4.78283344001320    3.59487186640234
C         1.08741093294276    3.05118663928142    2.32032147328554
H         1.34231775134289    3.72317978366380    1.49162965760278
H         1.77787827608013    2.20639491054856    2.26321432646718
C        -1.04642196325017    3.29659588222085    1.18442320174871
H        -2.01140345414756    2.79979605182897    1.06539029471454
H        -0.51436651029244    3.23709332492822    0.21813398656831
C        -1.31556700724721    4.76803305484215    1.49780631753926
H        -1.61948455095149    5.24314511152000    0.56040842195412
H        -0.39625519640764    5.25428733469746    1.82528713648656
C        -2.43831564677964    4.99030415417187    2.51189612258936
H        -3.30936031986801    4.39338977821174    2.22661664331896
H        -2.74424076402921    6.04044412184151    2.50765264010615
C        -1.29555891091347    2.75382005635050    7.74332300192408
C        -3.84388976946294    2.04006434094832    3.22319886968788
C        -1.08610471888984    5.91255462771719    4.92550439933612
C        -0.84029289242395    5.87541828178865    6.29748647528670
H        -1.22379470318042    5.04669755880693    6.87602530737536
C        -0.12577403345246    6.88533404756418    6.91244216539295
H         0.05397008785522    6.84189744486697    7.97593037331099
C         0.35530291142741    7.94767327070655    6.16304447538640
H         0.91500127709051    8.73904023432093    6.63885910082394
C         0.11156497042797    7.99462636581997    4.80112914360429
H         0.47730853152943    8.82526907690140    4.21458378371011
C        -0.60359690690046    6.98352699826773    4.18077203689184
H        -0.78803208385203    7.04770844441966    3.11860463849236
C        -3.65224819022915    4.85943919452700    5.06840506464800
C        -4.22483017721478    6.12460775544083    4.96281119053259
H        -3.71996047313149    6.90742534089374    4.41273165175998
C        -5.43517978517504    6.38711526536486    5.57538014042375
H        -5.87914660506199    7.36843674180119    5.48830646421704
C        -6.07610394734131    5.39632666389810    6.30276964246186
H        -7.02332448685477    5.60579583666440    6.77764279379180
C        -5.49725654520295    4.14513719032752    6.42799068885428
H        -5.98837810050039    3.37624417401307    7.00522611597274
C        -4.28591588817481    3.87549728120714    5.81599695173375
H        -3.81443064294249    2.90799792388571    5.92229366843084

