47
CSD_code = FAYYUA | q = 0 | S = 0 | Stoichiometry = C22H16N2O6Pd | MND = 4
Pd       -0.56792266333095   10.82510196739576    9.97885136435433
O         0.80658167931253   12.25468999899542    9.71729425598470
O         0.74124010303144   14.92243360767004   13.66447919599732
O         2.06117900917880   15.39420461670912   12.00195457875424
O        -0.20646841727854   10.14382369008590    8.13380073428357
O        -3.07103695746324    6.39016739960686    7.49130288706604
O        -1.69365529977783    7.04142967386723    5.94013764911284
N        -0.87079590185304   11.54405615458758   11.79115670255746
H        -1.53902874155019   11.04580285384148   12.38179758358373
N        -1.91815395687237    9.39880324696751   10.16639297927399
H        -2.43324858887572    9.36169492514481   11.04783275753613
C        -0.79820099818528   12.81593289924554   13.81285291953096
H        -1.49044977298435   12.03935680344372   14.13781421368417
H        -1.28396184522919   13.78658047363944   13.88459749745059
H         0.05154599010870   12.85042521024427   14.49020662605262
C        -0.34228225852259   12.56749615678433   12.40787005450051
C         0.63308095787533   13.43096660088062   11.80647444976048
C         1.10861248059358   14.58334038651993   12.56235131219408
C         2.57938886389143   15.17931291184797   10.77759760451286
C         3.55180554902749   16.06232303355222   10.31010100211968
H         3.85519683332561   16.88107589042988   10.94240561772542
C         4.09880871958349   15.86997359111084    9.05942882006950
H         4.85199086707513   16.55283957224735    8.69657130176300
C         3.68781016687004   14.80460417418132    8.26324257055949
H         4.12370646167591   14.66469053539112    7.28602913055866
C         2.72749358357543   13.93268207567366    8.72276750834068
H         2.38907621182018   13.09808628962960    8.12822804274541
C         2.16094964492195   14.10958776127905    9.98861293379926
C         1.13877043041157   13.19046177019432   10.49755224413782
C        -3.37521558960877    7.53745327719108    9.81797620947918
H        -3.69530364864770    7.80532796365568   10.82478087558376
H        -3.02238954475840    6.50877977169825    9.81178851550309
H        -4.22966951222881    7.56969767030584    9.14603909878568
C        -2.29835814248382    8.46174432184934    9.33891896786344
C        -1.73805002335994    8.29382453713213    8.02875838110850
C        -2.22359329770327    7.20142040405445    7.19413565892504
C        -0.74219505991340    7.85077922994838    5.43682940228880
C        -0.27835196999680    7.59843423648814    4.14645730956278
H        -0.69529126308719    6.76839230601845    3.59927167174507
C         0.69523951298901    8.40983094917824    3.60411106152080
H         1.05493058473864    8.21558491480382    2.60503099077241
C         1.21621318507224    9.47489285577912    4.33355143760377
H         1.97787260622936   10.10299950439804    3.89780081159393
C         0.75991861793808    9.72493062063489    5.60749596295557
H         1.14504887987118   10.54309257148316    6.19642658190434
C        -0.22711321602907    8.91405731460690    6.17570301766387
C        -0.72702426937656    9.16391327960707    7.53081950713058

