77
CSD_code = FAZHIY | q = 0 | S = 0 | Stoichiometry = C34H32N2O8Pd | MND = 4
Pd        3.62448128417943    7.75452728704241    7.72017065484102
O         2.39988831146436    8.53836444244343    9.07718848907855
O         1.09577299899077    9.21535088585603   11.13159892839769
O         2.92578028795446   10.15269443589455   13.11948877413757
O         5.61361640932667    9.40611753976381   14.35255821269518
O         6.37879451382363    7.29623638687554   15.59631873119456
O         6.50262915049913    4.56965649785335   14.28283565148812
O         4.69840587630827    5.08153151488742   11.18973280827837
O         4.23907327652482    6.47203528544286    9.11632224384902
N         4.83258302251028    7.05053316460742    6.36748884320356
N         3.07153538339599    8.99688421546276    6.32493682961365
C         4.62887539362785    7.65003555272180    5.12553811569302
C         5.25893417440493    7.27781728413544    3.93732866815473
H         5.96377076767046    6.46142357172851    3.92319431789727
C         4.97040456463394    7.92909468748395    2.75407552856000
H         5.46225402094618    7.62455605908946    1.84303712913766
C         4.04245824519556    8.95894637667068    2.73135652138534
H         3.81125523616662    9.45779821548565    1.80272335895021
C         3.39770419400637    9.34127307115358    3.89145048491203
H         2.66080394616981   10.12733168989272    3.84072215140029
C         3.67487580843554    8.70464325875860    5.10186144455373
C         2.28052426369126   10.02535978632346    6.51710617275518
H         2.09942708072303   10.70702526891211    5.68657349763531
C         1.61931782885211   10.36929803933691    7.71513840265317
C         0.82556033829540   11.54867111261037    7.71898383177794
H         0.76502968349275   12.12735502274083    6.80851801686585
C         0.15923505951500   11.95660711683040    8.83162856103898
H        -0.43395032932247   12.85807188104752    8.81660966009369
C         0.22891791466084   11.20931382813894   10.02364496508820
H        -0.31632194540186   11.56043809327115   10.88686589155803
C         0.96572544091160   10.05908149320865   10.07447115099525
C         1.71142329405582    9.59455730040081    8.92042120090511
C         0.70991588599060    9.61274759847630   12.41689794645449
H         0.79327803051918    8.70336414001137   13.01619082496097
H        -0.32900537545236    9.97038923490183   12.43995783454357
C         1.62803476696356   10.67935208695332   13.02140301358578
H         1.63740773371191   11.58314015051036   12.39039691639438
H         1.24265417208020   10.95699065569319   14.01662640007964
C         3.82912934070079   11.02398759078676   13.74856187937377
H         3.57909636724919   11.10944782166763   14.81699941915872
H         3.76403379290460   12.02806645250350   13.29641728093583
C         5.26022704163151   10.50596429600308   13.55485479567109
H         5.34317676873081   10.13587671306733   12.52996843232864
H         5.96723440598895   11.33403613019587   13.70265732068860
C         5.81307258662241    9.56892938012195   15.69014058392798
C         5.70117480887530   10.75600692167421   16.39386433649358
H         5.46909720175847   11.67620473048944   15.88130174805181
C         5.89267304992190   10.78440890138908   17.76959207232659
H         5.79680382354587   11.72063725106551   18.29798139366837
C         6.18790028180349    9.62495662738523   18.45073556361416
H         6.31242552450027    9.63521847933767   19.52260270847774
C         6.33910572996201    8.43066962774680   17.75739533427822
H         6.57660420321851    7.53382026831828   18.30722356442212
C         6.18477419682525    8.39233925407702   16.38297636332141
C         6.86708918958344    6.11072686321473   16.18220121868064
H         6.05814487528451    5.57940824625909   16.70118019826067
H         7.66926282017889    6.33613563838322   16.89725350119746
C         7.45640620486598    5.20518286597862   15.09142112851270
H         8.15000026405678    5.79659467203821   14.47813773124476
H         8.00773932977232    4.39887689354146   15.58457743664544
C         6.01391806344338    5.37138734084456   13.22140920599734
H         6.84212510270399    5.63154162460894   12.54338970205652
H         5.57272508382360    6.30140838350889   13.59399359455133
C         4.97044677091497    4.54700330021316   12.45854594835303
H         5.31002352468451    3.50529340653835   12.40129314425607
H         4.01651784643411    4.56956165721906   12.98947571062448
C         5.57743740598188    4.89702432908408   10.16845142047530
C         6.67501856534241    4.08153386898923   10.16783579491414
H         6.95514948800311    3.52339909803236   11.04753091992953
C         7.46392209991482    3.94996767314408    9.00871322460879
H         8.31952765259641    3.29277529280405    9.03392297276685
C         7.15064008014196    4.63377072881179    7.87663493264794
H         7.75566694668685    4.52078766604610    6.98860436181593
C         6.03752675714163    5.51705884258181    7.82456883309627
C         5.22918532776323    5.68284880547739    9.00038251077535
C         5.79031978361180    6.18685210435742    6.60850798514183
H         6.48630698330594    5.94387601988425    5.80603355191586

