48
CSD_code = FAZTIK | q = 0 | S = 0 | Stoichiometry = C19H20MnN4O3P | MND = 6
Mn        5.17620746934573    8.54008670168696    2.87058487997917
P         5.60837050477239    8.45845129819282    5.11665867868716
O         4.89872295697251    5.66480513517674    2.41590632425447
O         7.97689511817704    8.51761420718976    2.00612798707510
O         4.25277977244218    8.78578060170334    0.09854143074300
N         2.84788740913377    8.56343285689877    3.76127856153712
N         5.05271411708367   10.38396323929763    3.34805949001813
N         5.29720972736734   11.52228775048908    3.44282352364012
N         5.46002745073047   12.63378588073560    3.60920082286287
C         5.00055552949333    6.79354764555882    2.63572102459377
C         6.87613621253468    8.53441839297312    2.34119559018418
C         4.60238890504215    8.74750946912678    1.19394313608793
C         3.97237117417196    8.34023810135326    5.97255062713428
H         3.74517715216971    7.27426828127300    6.07532874583156
H         4.03070877163607    8.77069544545539    6.97642771561320
C         2.91063237984576    9.05648635941582    5.14380869172816
H         1.92389531718447    8.95365294287517    5.62678775006998
H         3.15792549077426   10.12222838630141    5.10336010993643
C         2.20466834598022    7.24827881701701    3.72633140104099
H         2.12703078329789    6.90517265783203    2.69545798622685
H         1.19361437989238    7.29881771939037    4.15491188997450
H         2.78400366890292    6.51454977453347    4.28381749885626
C         2.02286447020634    9.48785451878029    2.97759309734734
H         1.91836937429406    9.11642464573459    1.95925361709883
H         2.49117117185933   10.47063952516561    2.93999888768657
H         1.02189758777005    9.58973697152356    3.41879079007018
C         6.52630940566437    7.13191856559549    5.96878002962105
C         7.17213291251394    6.15583344867906    5.22035442633391
H         7.11149800944317    6.18995788150013    4.13891300456008
C         7.88979381653102    5.15624479663049    5.85441072234568
H         8.38970743883086    4.39907262869660    5.26905217516218
C         7.96763704836960    5.13160901983233    7.23646288148021
H         8.52678590280568    4.35212451010296    7.73223617288955
C         7.33580814445829    6.11201066462452    7.98664111447011
H         7.40586533752950    6.09680017112707    9.06450007800930
C         6.62066567946986    7.11295789191339    7.35785165078101
H         6.14157397050792    7.88774951285486    7.94127147299665
C         6.43838095984286    9.90443861385355    5.84027205115812
C         5.80372307961115   10.91806566373452    6.54671795724461
H         4.74208942199164   10.87648547225539    6.74744321062691
C         6.53245078189077   12.01002565470702    6.98548677461690
H         6.03401475609068   12.80008108040096    7.52732181091560
C         7.88689149390655   12.10067245657459    6.71714579655186
H         8.44573804120735   12.96121175554870    7.05250432029016
C         8.52223152717984   11.09556872739794    6.00465640198162
H         9.57648239399755   11.16998119720861    5.78336981730131
C         7.80119607754331   10.00379708658380    5.56430145854182
H         8.28129855953887    9.21836587450418    4.99174641385127

