29
CSD_code = FAZTEH | q = 0 | S = 0 | Stoichiometry = C11H9AgCl4N2O2 | MND = 2
Ag        6.50422559956042    3.71813812796513    5.67679790042029
Cl        4.66282888938573    7.86226119043960    1.32380181776040
Cl        6.55954308918652   10.11805948652760    0.41412720061955
Cl       10.42419210760416    8.46850469115827    3.75629095437616
Cl        9.37715502031864   10.41613740788472    1.60317496693882
C         7.08308252075941    9.00218617017814    1.60793912838097
C         7.00187889880673    5.47746969645492    4.49481843463750
N         6.13576196459493    6.00957835591184    3.60997527379453
N         8.12603623927401    6.22210187152429    4.44948240654897
C         8.37052015718598    9.13867554239775    2.15104222575663
C         7.99042156504585    7.23664568249157    3.53727904201080
C         9.28510329430515    5.96184521463114    5.25878769057686
H         9.07506174860324    5.08557793054373    5.87541318561516
H         9.50066762717214    6.81333147375978    5.90376457057451
H        10.15320190768547    5.76160368166734    4.63150553819350
C         6.69454305420153    7.09812403081219    2.99102991665126
C         6.22904102079067    7.98434276597269    2.01830193874656
C         8.84109831945594    8.26068326242478    3.12070821581385
O         6.08260634896025    1.94181385767631    6.89362839824044
O         4.40873572837673    2.45999749212043    5.56362672974493
C         4.81659382097838    5.48688228783987    3.36697538276070
H         4.66356016342266    4.61101159368214    4.00531903491506
H         4.71288348814867    5.19098670878631    2.32369898848427
H         4.06224361972079    6.23713280535825    3.60126072230305
C         4.92816076578466    1.73279346044734    6.43120167986804
C         4.15028701988837    0.54847680490205    6.97381828576930
H         3.31801855208643    0.91856074121617    7.56862841100239
H         4.79451860826753   -0.06942781659567    7.59162904906356
H         3.74742886043026   -0.02949451817915    6.14627291043277

