46
CSD_code = FAZTEG | q = 0 | S = 0 | Stoichiometry = C19H20BrMnNO3P | MND = 6
Mn       -9.19235616662219   -1.27068412337249  -11.26039456897222
Br       -8.53319612767618   -0.12828449307787   -9.24007575927027
P       -11.30145816034155   -1.23999441354772  -10.37955221009144
O        -9.81780449312489   -2.77540237289811  -13.67901687198191
O        -9.49009754306616    1.25353340900200  -12.71890716738325
O        -6.41002519229632   -1.49357422905893  -12.15573929258653
N        -9.11917999752054   -3.30833163012677   -9.96835320844982
C        -9.61671211505729   -2.20190855070408  -12.69819886356170
C        -9.36943905610847    0.26403213160408  -12.14612413080337
C        -7.48842210535174   -1.41301465276127  -11.76919808527259
C       -11.43588805993659   -2.71409208606964   -9.25808941886161
H       -12.03633844204273   -2.47109265455414   -8.37735080568304
H       -11.95136207781306   -3.49784953154330   -9.82203331646847
C       -10.04456651424693   -3.17350913487595   -8.83029702589961
H        -9.61986760183070   -2.43802086010056   -8.13984507922178
H       -10.11939815656862   -4.13449919908538   -8.29556162842051
C        -7.77470916025404   -3.55578600843005   -9.42998909685524
H        -7.44140691345076   -2.70716972678964   -8.83333514785607
H        -7.06965032029225   -3.70586442033543  -10.24709294559174
H        -7.77143312046761   -4.45216818477473   -8.79664188713216
C        -9.49657453544833   -4.47483419230834  -10.77358077127934
H        -8.77018717650290   -4.62327980529745  -11.57221821429465
H       -10.47706112247440   -4.33737524751534  -11.22843185381895
H        -9.51901618398200   -5.38071342816207  -10.15240086770529
C       -12.78028693837702   -1.45540422043644  -11.42608829378312
C       -13.99456826908286   -1.84563197828969  -10.86757897718374
H       -14.06303937655636   -2.04323178957756   -9.80651621569781
C       -15.11500841991631   -1.96928115895408  -11.66682614901566
H       -16.05426857334306   -2.27617773837215  -11.23043818777430
C       -15.03698412212366   -1.69463421757255  -13.02348154527903
H       -15.91500494247291   -1.79278295324569  -13.64418261674940
C       -13.83687537218065   -1.28685740366362  -13.58016082632323
H       -13.77535731784111   -1.06203372071064  -14.63440458879517
C       -12.71156512918247   -1.16561219756151  -12.78355543184872
H       -11.77127599068417   -0.83916515195338  -13.21272033560814
C       -11.87688264781419    0.16537124780213   -9.37787270538602
C       -12.44789040580446    1.23903719502247  -10.05756074747709
H       -12.56503367679850    1.19158679572695  -11.13306165125084
C       -12.85598335344221    2.36040776383642   -9.36167621286498
H       -13.29847049316660    3.18984600975571   -9.89321289344712
C       -12.68713877794852    2.42285724988793   -7.98781213114133
H       -13.00165534499453    3.30172280936450   -7.44518367567069
C       -12.09965348163053    1.36625297329179   -7.31331941771112
H       -11.94735577988863    1.42184300288948   -6.24597109807331
C       -11.68777720630883    0.24019735047774   -8.00272231769842
H       -11.19667403792420   -0.55942646296219   -7.46742576376538

