53
CSD_code = FAZVUZ | q = 0 | S = 0 | Stoichiometry = C6H24N2NiO16P4 | MND = 6
Ni        0.01472349339512   10.83649731865392   -0.01400773953973
P         2.24269502577309    8.67089093603789    0.48262245939287
P         1.26829871523596   10.48790427364457    2.63293522275321
O         0.08214490425980    9.52348342614165    2.99936049448696
O         1.32529986619417   12.79405577931031   -0.82690580526442
O         0.90455249932545   11.51634356968030    1.60011208517367
O         1.46789883446585    9.70679793819320   -0.30291795303509
O         1.60463894295875   11.13820001816093    4.01042265264165
C         2.67711797454628    9.41968094698302    2.13438070817393
O         2.86676086859837    8.44169770425052    3.12522546559375
C         4.67945127060822   10.67324141873085    3.15790574716682
C         3.96679137324010   10.18714735286553    1.89701394123933
O         3.37929483665779    8.01242837595611   -0.16877869909866
O         1.14808364057628    7.52802862775102    0.97027583648679
N         4.07959289005378   11.89894979330140    3.69197557332282
H         4.56395650746457   12.19228804639498    4.53295042380071
H         2.54255442064275   11.51388580538669    4.01648114739071
H         4.13966359768130   12.64888608821510    3.01051355898351
H         0.59037803582180   13.41159238714074   -0.67734442947822
H         3.73951520274502   11.02025254074806    1.22682130386770
H         4.60118744536846    9.89945018921630    3.92401940463057
H         4.63306754702904    9.50393055835655    1.36376886019603
H         5.74234607993646   10.81760565242244    2.92046607224673
H         1.79517922578668   12.72388091872004    0.01335221262333
H         2.04567684817370    7.93885552965452    3.19990084236567
H        -0.62223844114059    9.50977171663019    2.32397723512769
H         1.56727354302734    6.67710923768732    0.83609079239443
P        -2.22799011327371   12.99578133850172   -0.48384444029606
P        -1.27482899708605   11.19914907829982   -2.66008506438116
O        -0.11265844904651   12.18298787518137   -3.05096419323515
O        -1.31273852164359    8.86692388439964    0.75513544081253
O        -0.86851669918233   10.17285731723792   -1.64071618629675
O        -1.44094141569369   11.95798080012620    0.28690540086711
O        -1.63267421133245   10.54630774778531   -4.03109545309645
C        -2.68775928651746   12.24537790653780   -2.12736602459232
O        -2.91226532827676   13.22199716609454   -3.11212984995419
C        -4.69282583892526   10.96076587717987   -3.10652676585975
C        -3.96125584555019   11.46040944658860   -1.86192536577077
O        -3.35444162783957   13.65243793299788    0.18665927091398
O        -1.14145191397075   14.13897938641387   -0.98630995996584
N        -4.08569116751792    9.74315731230965   -3.65098212568178
H        -4.58436693529546    9.43986952324651   -4.48000151578569
H        -2.56355651264047   10.15403955744962   -4.01470211890543
H        -4.11895185704707    8.99435337722622   -2.96641948492365
H        -0.57087245870301    8.24829997810797    0.65108112347906
H        -3.70882558662850   10.63291040528200   -1.19376195954028
H        -4.64271351824889   11.73400352563223   -3.87558605380891
H        -4.62591072272148   12.13613046237879   -1.31718712369719
H        -5.74808923988616   10.80063776597224   -2.84631463508567
H        -1.72480060247162    8.93887234040300   -0.11534236852500
H        -2.09988677185449   13.73594921562999   -3.20397077302381
H         0.60618950573672   12.20017996562515   -2.39148598276760
H        -1.55808103280900   14.98978466315586   -0.84368120452433

