39
CSD_code = FCACPD | q = 0 | S = 0 | Stoichiometry = C12H9F12NO4Pd | MND = 4
Pd        0.68165123316025    0.14388546458599    3.64681384754239
F         3.97510323991204    3.20857309057250    5.10239247716291
F         2.18480134002137    4.04646829891975    5.95077066815790
F         3.56816554456023    2.97375405210573    7.20235832136571
F        -1.59738690536751    0.72765336183367    4.92391521055399
F        -2.10971435138616   -1.34923322285632    5.22610582206482
F        -3.51520552103633   -0.03594333907272    4.25926342316420
F         2.40283123904497   -2.94952144132438    1.26879929333527
F         1.37212576212452   -3.69706975478042    3.00548504861468
F         2.46242100850245   -1.82616467341714    3.11844575052141
F         0.74286171722624   -0.80708453680831    8.70353079108398
F         0.73423976595677   -2.53230183451918    7.41284135836205
F         2.60096407944559   -1.69841626760193    8.08937846045227
O         1.82025448291861    1.68643392115677    4.45935035934827
O         0.82920897418674   -0.89258022329049    5.42339546487937
O        -1.93620941274532    0.06184843506787    2.02072141641799
O         0.37585726010373   -1.25334909808715    0.80201703521725
N         0.59194059045355    1.24421533417336    1.93039858364079
C         2.23043747135840    1.69692954781530    5.64248752017825
C         2.08398844826767    0.74359058418695    6.64350033607752
C         1.40390024266333   -0.46028693100452    6.43948698667949
C         3.00380920369846    2.98746597873153    5.99643738473967
C         1.36469181794613   -1.39368954815360    7.67317126693722
C        -1.54852468093635   -0.60533542676241    2.96471540455245
C        -0.46063403588495   -1.53840318158960    3.03568738760231
C         0.41677138999846   -1.73388765975685    1.92069000415033
C        -2.23470431005806   -0.35363955453130    4.34988431064170
C         1.65968272166492   -2.60197429870494    2.30824582377888
C        -0.06954119910703    2.52272828155507    2.19166718619367
C         1.94213398722079    1.41484537652920    1.39201764028369
H        -0.43439695667498   -2.26089454663442    3.84769200246158
H        -0.10766284024964    3.13058795136810    1.28276144603450
H         0.47937747094478    3.07342087818162    2.95946491146231
H        -1.09367180767974    2.34130163931206    2.52614945337809
H         2.37394331132414    0.43751479196664    1.16213524654740
H         2.56761158633152    1.93214084644744    2.12381484190749
H         0.02958791827845    0.72990936349821    1.23332551492717
H         1.91944413757889    2.00474278888676    0.47067161908734
H         2.51364607623169    0.93116555199746    7.61341038049634

