58
CSD_code = FEBHEA | q = 0 | S = 0 | Stoichiometry = C25H27CdCl2N3 | MND = 5
Cd        9.88460767346517    2.31001272787918    3.65088509185017
Cl        9.81323965940167    2.05702440260201    6.02074804722923
Cl        9.38485809711768    0.59155465395326    2.16019471822840
N         8.05819652822021    3.88759650109155    3.50893405596076
N        10.54417287409776    4.53154235083091    4.15218053974740
N        12.27300549191438    2.64136641821915    3.49180308796476
C         8.21153534581802    4.99035441746134    4.12017618332613
C         9.56691931691511    5.29250708132482    4.62751306032716
C         9.81548864972618    6.26944114661093    5.59300537201474
H         9.02088453051831    6.88121735293586    5.98702841089502
C        11.10920576860164    6.41659009160719    6.06408518012007
H        11.33099432410966    7.15648802245982    6.81879004639093
C        12.11208176533367    5.59254638148557    5.58171912585887
H        13.11532143317240    5.67502874703358    5.96605047710542
C        11.78193527178015    4.63838127551217    4.61816764563082
C        12.75038677975623    3.64780457588307    4.10160129419183
C         7.12128828992945    5.99212593668123    4.35895498323578
H         6.23981755629502    5.72735807472471    3.77831579703361
H         7.45438682820444    6.98919621600036    4.07626859767619
H         6.84984406368446    6.00773769043445    5.41372233596239
C        14.21227876907668    3.89220768928628    4.33017492201275
H        14.80225733941835    3.18847471797540    3.74624722122275
H        14.45514716460713    3.75815555880577    5.38350455008902
H        14.47598289061766    4.90910625206674    4.04481649208938
C         6.83917694164793    3.41054029832930    3.01923339672546
C         6.67824034725829    3.34507849283887    1.62846793978268
C         5.49769203130676    2.83403249310891    1.11685981573090
H         5.36384166801378    2.78821579611307    0.04627499996951
C         4.50366774184037    2.36911710198320    1.96006074102525
H         3.59030482771280    1.96642131117327    1.54903256263729
C         4.69248708096417    2.39807688883529    3.32881971699637
H         3.92947310812122    2.00706833942472    3.98599641912913
C         5.85478719659244    2.91587525465452    3.88385118564447
C         7.78662035361032    3.81027212336038    0.73549790186271
H         8.65842186281413    3.16936191479914    0.89136139722380
H         8.07536076711824    4.83753601001508    0.96097153460599
H         7.49034520032490    3.74765586439314   -0.30809457081444
C         6.06591479748340    2.88921067101645    5.36861323384563
H         7.10320082538866    2.65667682296050    5.61244069118669
H         5.42799266382233    2.13403307870401    5.82111837407986
H         5.81702025260454    3.85082784842632    5.81961714222771
C        13.03048246603189    1.58019278111799    2.98786801893029
C        13.12721554290281    1.45504558368823    1.59542616645201
C        13.83111827574166    0.38531307369614    1.06942494222722
H        13.91665562895457    0.28673058906130   -0.00255901909969
C        14.40582866820500   -0.56068679788049    1.90008381733546
H        14.94568609214974   -1.39462817470889    1.47766963618023
C        14.26646049201686   -0.44953945251068    3.27055566219306
H        14.68909725144277   -1.20416354881464    3.91771873595806
C        13.58203411060668    0.61560635664531    3.83981005587868
C        12.45593214570860    2.46494156317880    0.71671171648425
H        12.78482920402291    3.47814531759163    0.95108787496686
H        11.37599691676085    2.41183390966441    0.87832101597642
H        12.66239348540887    2.25995225937004   -0.33029334494238
C        13.39437160506002    0.69461602952836    5.32580942909257
H        14.11467112182969    1.37747110007901    5.77851212909763
H        13.53828035550316   -0.28627411586662    5.77200303359147
H        12.39156255922601    1.04452493316633    5.57474041162537

