35
CSD_code = FEBJAX | q = 0 | S = 0 | Stoichiometry = C12H15CoF4OSi2 | MND = 8
Co        1.64699826032800    4.62394866569732    0.39035154285915
Si        0.96324031189654    3.00031333973827    1.87522038023405
Si        3.79686227477505    3.80747623884638    0.58287019243556
F        -0.46567108432025    2.25862214070028    1.65122579581573
F         0.62153119636052    3.51004242133633    3.38080949379251
F         4.90268135888490    4.68433203427961    1.38553565378639
F         4.70702518016905    3.57546138199837   -0.73939483617688
O         1.11006848172787    2.93857756983374   -1.88515203281463
C         1.33414887616337    3.59455318455033   -0.97423467947411
C         1.77219530533272    6.17367765276557    1.77046461275843
C         0.40338943224690    6.00209329514089    1.44004893091789
C         0.26035835607278    6.23455971956661    0.05692532536098
C         1.52964419810165    6.59212744074723   -0.46343690141008
C         2.45761743040955    6.58461162798896    0.59933152730988
C         3.59408117267864    2.15410231367433    1.48512203782296
C         2.43153571278509    1.76098756658874    2.00706188606622
C         2.20917014320837    0.40887222190594    2.65138814692353
C         1.38329766333747    0.55864572482477    3.93168265556431
C         3.52470052259662   -0.29511318086944    2.99902060409828
C         1.43632140885000   -0.44898935692567    1.63963295903715
H         2.17518691619429    6.19111925489139    2.77080284180668
H        -0.39747655641395    5.83439528609290    2.14090841068295
H        -0.67177394909145    6.26604181495414   -0.48458241334025
H         1.72132136266439    6.94247260761634   -1.46526587119044
H         3.47407836562666    6.93908514726186    0.55514687290752
H         4.47135452271165    1.52899481426805    1.54668631047474
H         1.26034628473125   -0.41048595448595    4.40972598013544
H         0.39635741105164    0.95636229163825    3.71727200659834
H         1.88214009480303    1.22752830221336    4.62846988978485
H         3.31151560151661   -1.22152185428953    3.52727870368502
H         4.13827828540873    0.33164949534110    3.64140401357771
H         4.08701206217066   -0.54412838286986    2.10294060584880
H         1.26882416951510   -1.44207618411508    2.04981616304695
H         2.00144755302567   -0.54460625289234    0.71520673445744
H         0.47329167447990   -0.00373238801131    1.41041645661939

