66
CSD_code = FEBLII | q = 0 | S = 0 | Stoichiometry = C31H29O3P2Re | MND = 6
Re       11.21408623518802    5.39309735388513   14.55408252229373
H        12.77974174181275    5.04184792418872   15.00523026259045
P        11.48027543903090    7.35287406361687   16.00183490679577
P        12.07638049566990    6.70270607183437   12.68207939851336
O         8.30051038251926    6.09882605370649   13.76196726341611
O        11.10033174459295    2.85614882645808   12.77143928311939
O        10.17894398492412    3.79181619481394   17.00285155406269
C         9.38905788422336    5.88931627155846   14.05380961199544
C        11.14402072599963    3.79488458757058   13.43807379927188
C        10.56844099103024    4.37962225595898   16.09450715680380
C        13.20624337787981    7.87628990518380   16.41431665638851
H        13.16328471799557    8.40861043375166   17.37133896216556
H        13.76017524513702    6.94369275217900   16.56292061991902
C        13.94165595419055    8.73427825742472   15.38715120768506
H        13.42432413712667    9.69029108598990   15.25954686824351
H        14.92819852009820    8.95437356879209   15.80572887117431
C        14.12792109424788    8.06193219840324   14.02410190259229
H        14.28877906338340    6.98946918451812   14.17493166113216
H        15.03090092859757    8.46001775608924   13.55670186460174
C        12.94155969817196    8.28071067756034   13.07554804784301
H        13.27113039820721    8.71891282582168   12.12746949227020
H        12.21298887943406    8.95799916049018   13.53158945736416
C        10.65627869324665    8.95683611514842   15.71271421891358
C         9.89519474652841    9.15556145572494   14.56845557287079
H         9.79447449447664    8.35298807025067   13.84773265534822
C         9.26588602158014   10.36739581409586   14.34392739472374
H         8.67481638529767   10.50729359655340   13.45045555397969
C         9.39372326362239   11.39028451222822   15.26744935163838
H         8.90423441162015   12.33773306176805   15.09692846355458
C        10.14496071906674   11.19604356781279   16.41712130217522
H        10.23728041753533   11.99191535726199   17.14182714365519
C        10.77222772863649    9.98601760810056   16.64367304363618
H        11.34153580250451    9.83284798412629   17.54991223540373
C        10.83481022687660    6.96108318398493   17.65841813001099
C         9.50125404959256    7.23557319953896   17.94784276332289
H         8.88557934768169    7.74098854803100   17.21477858783355
C         8.96343720873276    6.85956738608204   19.16417579274384
H         7.92833816144786    7.07759018716286   19.38335900707846
C         9.74632137680706    6.19588152279836   20.09417543737171
H         9.32343334297316    5.89838875929150   21.04222832371422
C        11.06650816371240    5.89851577551854   19.80020817725335
H        11.67297339737148    5.36373457560566   20.51640054588379
C        11.61041013361213    6.27150062651503   18.58493425498010
H        12.63207320364694    6.01007249144773   18.34947751067034
C        10.81292640594578    7.20136123103028   11.46600844239268
C        10.14673293809199    6.14856261306740   10.84073939126824
H        10.43295492714317    5.13094608181170   11.08271425889661
C         9.13532690300196    6.39877144115807    9.93564709296104
H         8.62459670779860    5.57708718289806    9.45589406585972
C         8.77143279188840    7.70668322091257    9.65301628936901
H         7.97492388397799    7.90684374600645    8.95173316116023
C         9.42557747295340    8.75579137412862   10.27469701758453
H         9.14114200700608    9.77549731638124   10.05669862051633
C        10.44457431559006    8.51002319714945   11.18016536437751
H        10.94150755356731    9.34241580609553   11.65790658784725
C        13.28767959806091    5.93246797370307   11.55839842278412
C        13.96175053775400    4.77439299453219   11.92228820629252
H        13.75091909111905    4.31412917428445   12.87828109680361
C        14.88779853153981    4.21174837957676   11.06088057077594
H        15.40670550119727    3.30904820374274   11.34746076041350
C        15.14266264879338    4.80039077468025    9.83456500873686
H        15.86221444913877    4.35915980329702    9.16064026022435
C        14.46881518836867    5.95492076400340    9.46623204114755
H        14.66242391278936    6.41178818613436    8.50638330749349
C        13.54443211175284    6.52072899422504   10.32229129039504
H        13.00929958629612    7.41411073231907   10.02704190568009

