67
CSD_code = FEBQAF | q = 0 | S = 0 | Stoichiometry = C25H32F3IN2O2PtSi | MND = 6
Pt        5.32666710221082    3.18884336872313    8.17786569114212
I         5.82600708123952    0.54476852968025    8.22346060999377
C         4.95297446476495    5.12456798823882    8.17241333377241
C         3.72122554338213    5.53945633982940    7.71518385565423
C         2.80990978044276    4.44269566864132    7.23344342586993
N         3.15148843802665    3.14213153393696    7.87306827957154
C         2.72926090303730    2.03615051437764    7.01223428343700
C         2.44105635880621    3.04006358633020    9.15269662322108
C         3.48404287639105    6.90524232971873    7.64709586743307
C         4.48456621535495    7.78961799126997    8.02228080737243
C         5.72397998892044    7.34535972809297    8.45934438545659
C         5.96660495040000    5.98190204697272    8.54380923394605
C         7.22109490834554    5.30954739349435    9.03403089882764
N         7.34734622421610    3.94242205365284    8.45185526928261
C         7.96107606015893    4.03767852370996    7.12594537753398
C         8.20149825478224    3.11670929099251    9.30976877747727
O         5.34828944939375    3.05144902994028    5.99406457546916
O         5.69659048657559    5.15616125332406    5.36720722409536
C         5.43795087476110    3.97831460059913    5.13396828224339
C         5.19246309102581    3.52842062910811    3.70894237091036
C         5.16043468643062    2.17728896288970    3.38600879446991
C         4.93982569341676    1.78230901471438    2.08003900302874
C         4.75016023650796    2.74759754494227    1.09955769473052
C         4.46912530655112    2.33403236732724   -0.31527778040672
F         4.93131556273124    1.11068073057804   -0.61301755551391
F         5.00174993168161    3.17174534539406   -1.22063205566481
F         3.14363805777563    2.30414240661976   -0.57720553933140
C         4.77850170661942    4.10141699035737    1.41489813474966
C         5.00498316031566    4.48731779638221    2.72121095924003
C         5.19818813820638    3.26895579765237   10.14778554744050
C         5.19363704092094    3.30135402414634   11.35592472927873
Si        5.21324416282799    3.33168655916734   13.21433100640407
C         6.25433656128679    4.84571199978678   13.73453459987870
C         3.41707539348212    3.51137036296284   13.82562888594204
C         6.00385258064367    1.71979626969280   13.84790047291242
H         2.95613734214191    4.34431576597639    6.15165187122807
H         1.75097316237277    4.67195501864525    7.40833570595744
H         2.85602256879148    1.08980293018945    7.53753293351887
H         3.33758838359518    2.01553265156018    6.10724592093255
H         1.67574598736040    2.14544363816177    6.73370400640109
H         2.75144285688291    2.13931366228494    9.68363855515869
H         1.36032615965301    2.99092342131297    8.97763536977272
H         2.66111558472808    3.90501666617439    9.77823845000094
H         2.53545622414346    7.27701230120575    7.28801549460110
H         4.29867779321096    8.85109633742909    7.95762888541626
H         6.49295357440276    8.05534481013406    8.72591451810293
H         7.15136721020362    5.20753610851325   10.12337617288270
H         8.11947351936666    5.89058111063802    8.79488592740336
H         7.96088873095469    3.05925726298685    6.64160028479759
H         8.99766037982642    4.38173415590808    7.21126497772915
H         7.40632284798124    4.74502961924149    6.50662028160333
H         8.37053396888947    2.14652740419024    8.84339046805333
H         7.72374481567280    2.95840161594802   10.27740693084383
H         9.17025926837817    3.60408064838401    9.45915363979459
H         5.31723907492903    1.44091278778077    4.16010141120516
H         4.92004320473223    0.73523763916424    1.81908682260390
H         4.63066527084788    4.83773706982342    0.63949959689725
H         5.04356400797412    5.53010491929477    2.99848064973266
H         6.27724977955389    4.95343903952917   14.81486644869538
H         5.84870644792073    5.76484409989174   13.32164671508823
H         7.28230773492685    4.75733468581271   13.39450473867573
H         3.37482741109950    3.57954173327443   14.90878661419301
H         2.81407456611827    2.65952008617174   13.52610005442452
H         2.94936402479712    4.40443141308050   13.42147328972303
H         6.00710484137423    1.67852819500497   14.93356966625350
H         7.03207170187239    1.62365162058542   13.51165531824945
H         5.46243028359056    0.85140300859308   13.48552221007450

