33
CSD_code = FEBRUZ | q = 0 | S = 0 | Stoichiometry = C8H18O2P2PdS2 | MND = 4
Pd        1.25942187660475    1.66393060745300    0.87766109895859
S         1.15225960455373    1.97047202792537   -1.39898656070688
S         2.82752384262910    0.03478855271226    0.42250559965225
P        -0.20657616036079    3.42526899036619    1.11727752359175
P         1.63408310686938    1.15767233949248    3.10722761273171
O         2.48064224908908    0.96843384639634   -3.36288863008262
O         4.08599874287843   -0.60813976159805   -1.73107960288364
C         2.34175032613114    0.96173611131749   -2.16657698403245
C         3.19937783182931    0.06736098431203   -1.27468601225267
C        -0.87594496205225    4.20677120049069   -0.39152796297551
C        -1.73710880004478    3.21795007051652    2.10786982143589
C         0.62057968791761    4.85268591549231    1.92175708886699
C         0.68946962243090    1.77136512103092    4.56304957094030
C         3.32463200435383    1.74975748884872    3.48453097283791
C         1.74286043362407   -0.62057205909209    3.51773779025147
H        -1.45509785488429    3.47170779143963   -0.94849382401418
H        -0.05134116456952    4.53468075538207   -1.02215092161474
H        -1.50558387623931    5.05520014802734   -0.12451677494073
H        -1.49671497624427    2.90128333811254    3.11924841223069
H        -2.35091980762559    2.45107972398057    1.63701448891359
H        -2.28881482152822    4.15661237410398    2.13780832066944
H         0.96701426122507    4.57568093412897    2.91608319146180
H        -0.06029822391610    5.69980139916470    1.99095633766258
H         1.48497832811033    5.12786746836042    1.31652688324200
H         0.61084522817823    2.85604520315609    4.54503640487884
H         1.20208614467452    1.46458262216933    5.47377004450139
H        -0.30921686759287    1.33866687739395    4.55493182275109
H         3.36489607971852    2.83315061003084    3.36478100009434
H         4.00967328996498    1.29367998951126    2.76910205178014
H         3.61348702621023    1.47898822491748    4.49931244711340
H         2.42181232593551   -1.10440408160845    2.81769367784565
H         0.75714357764131   -1.07334945960499    3.41677185607018
H         2.10418192448697   -0.74795535432415    4.53795325501491

