55
CSD_code = FEBVOX | q = 0 | S = 0 | Stoichiometry = C22H24N2NiO6 | MND = 4
Ni        7.06479876909394   -0.23214645712496    5.14483891661409
O         5.95923407802564    0.70202696053386    6.25286398541377
O         8.42855448350219    2.73498017699706    2.13323532661190
O         9.77317924219002    1.03829372720278    1.55560833320989
N         8.16979638145255    1.38012291120469    4.83491430636171
C         6.91373802043241    2.88917016090553    6.26699650326805
C         5.96670231539700    1.91020688971911    6.68545616088443
C         4.98381179168080    2.30761998471977    7.62845746086995
C         4.94053777618406    3.58869139755217    8.10610297891587
C         5.86533877726740    4.54961312976133    7.67824613631995
C         6.83280368387731    4.19865689007394    6.77577383889955
C         7.93554177889890    2.54585345727274    5.34608906334412
C         9.27517918029874    1.31912692416541    3.89772950625042
C         8.76283802619479    1.40791059857718    2.45870898995939
C         8.51795459411193    2.82833782046499    0.72919968934674
C         9.46295450789792    1.66925449869019    0.33176361088661
H         4.27822226660117    1.55887110618783    7.95695238523247
H         4.18253244259162    3.86579153535367    8.82485406952438
H         5.81224853598982    5.55620206386725    8.06363474809831
H         7.55670310323851    4.92801932083043    6.43991515344875
H         8.59220151124164    3.36950595354804    5.05798633039767
H         9.97271154662453    2.14902203697515    4.05561443036684
H         9.79991514820540    0.36784257226953    3.99360389560434
H         7.87623195154365    0.75129832190532    2.33502169822209
H         7.52842789432723    2.70500220865296    0.27138781680702
H         8.91526056816766    3.81345485152872    0.48044570395578
H        10.39649266715289    2.01112755300558   -0.11828366955404
H         8.96345650917099    0.96677183743145   -0.34674070080160
O         8.17034558162848   -1.16631161951986    4.03678692346801
N         5.95985777562542   -1.84444227687478    5.45483408678708
C         8.16284426986529   -2.37447583799887    3.60415060070505
C         6.19408271364363   -3.01015808752245    4.94361331439937
C         4.85454261460547   -1.78346982723958    6.39209809593365
C         7.21581807843435   -3.35344457612742    4.02261884716447
C         9.14568523559185   -2.77186431072642    2.66108711569985
H         5.53742475981531   -3.83381369791436    5.23171111236125
C         5.36700976728874   -1.87218233397633    7.83107776226519
H         4.15703884784491   -2.61340497606679    6.23429667835202
H         4.32975254198846   -0.83221341185697    6.29623535893920
C         7.29670516214691   -4.66290970047787    3.51377850882821
C         9.18891672310724   -4.05291638183482    2.18338514491858
H         9.85127204340890   -2.02311220764656    2.33259352631131
O         5.70140996066862   -3.19922135883635    8.15655665957244
O         4.35671765359333   -1.50261152408410    8.73425111321729
H         6.25358293761772   -1.21550680762702    7.95467449416325
C         8.26412125977839   -5.01384210150624    2.61124486482397
H         6.57281443588621   -5.39227731263264    3.84964478595219
H         9.94688618955739   -4.32999905400755    1.46458955663908
C         5.61212542863392   -3.29255665692544    9.56060120046450
C         4.66709248007302   -2.13351664653551    9.95808618784461
H         8.31718102504691   -6.02041707122371    2.22581521226244
H         6.60168104811777   -3.16915623107997   10.01833341819922
H         5.21489408827914   -4.27769182671256    9.80940521149274
H         3.73361574881202   -2.47542785420986   10.40823138125991
H         5.16661407758088   -1.43098474110771   10.63652216951620

