52
CSD_code = FEBYIX | q = 0 | S = 0 | Stoichiometry = C18H22N5O5STc | MND = 5
Tc        7.80666370940676    2.21611958918878    8.17247446391192
O         7.72133727005756    0.74850840685431    7.45394663882593
S         9.06418909488751    3.55137955295947    6.65624528752816
C        10.66099936462603    2.88962355001035    6.90218296283670
N        11.18744675444761    2.75972034597387    8.09334372377431
C        10.61527923555498    2.60906818009176    9.26539922082726
N         9.39293472030006    2.13885563950367    9.44451333168477
C         9.01108472847626    1.60075611140677   10.73536370463871
H         9.67834342900742    1.90165459420342   11.54516570586041
H         9.01726759458966    0.50504274997770   10.66762133276363
C         7.57428902470939    2.02452327255831   11.04195878786643
N         6.93438465675916    2.33737450459600    9.89627076110385
C         5.56637604917625    2.78081313991341    9.96368838335545
H         5.40848226362998    3.43737085502623   10.82655306172307
H         4.88001277833059    1.93088120851533   10.06135932012773
C         5.26004543747675    3.51521187544358    8.67201856439897
N         6.29952746485656    3.45395776613937    7.79573960338210
C         6.06903889705739    4.15179448939185    6.54718677139452
H         6.78864901218652    4.96369586425093    6.39498771644393
H         5.05938765937150    4.58871714869649    6.59015900051210
C         6.12236305859132    3.22794478998927    5.35080304822580
O         5.90104135217215    1.95838618548012    5.69516095041836
H         5.95644188182207    1.37062443190208    4.92552047832974
O         6.32578292021311    3.57696998204826    4.21905291817518
N        11.41760575060852    2.63944919343899    5.83903697471076
C        12.74779261548933    2.09394023118036    6.02972252675632
H        13.16388418451815    2.53717037133419    6.93743488327064
H        13.35974598016410    2.38547781622264    5.17435938844592
C        12.70955860818903    0.57472288699710    6.16655260816745
H        12.09240823942295    0.29411527892155    7.01606989712018
H        13.71379474248737    0.18907679073173    6.31818200969573
H        12.29253494236865    0.11782793282842    5.27240853790400
C        11.20515395965113    4.28284200206055    4.02203801084146
H        10.66540036401551    4.97927998834706    4.65718002300705
H        10.85604913536397    4.40410410953627    3.00118662496640
H        12.26607097949511    4.51874757929683    4.06192440582567
C        10.94858077173945    2.85260163873320    4.48659195909905
H         9.87577721148628    2.64776999840390    4.44706017789353
H        11.46589600467895    2.14328689787816    3.83748306709226
C        11.52039700135344    2.93870268442613   10.39421749800800
C        12.79144639756716    2.37961773451891   10.45065152566563
H        13.08930867230111    1.67125940751951    9.69309170366083
C        13.65231429981390    2.72208285246781   11.47772293145614
H        14.63527447355243    2.27802462495989   11.52416139580265
C        13.25652143619767    3.63401845515245   12.44225009648237
H        13.92979991419507    3.90079183542108   13.24273284216551
C        11.99772110067960    4.20875110333443   12.37715505350847
H        11.68994343430212    4.92720939872159   13.12152851121967
C        11.12849798812163    3.86366513926849   11.35830475474106
H        10.15103576875219    4.32167788346838   11.30166772024871
O         7.11227279687843    2.07406593475804   12.16234111012207
O         4.21684486890054    4.10852599595409    8.47722802402777

