58
CSD_code = FECBUL | q = 1 | S = 0 | Stoichiometry = C21H27Cl2N7Rh(1+) | MND = 6
Rh       -1.40432223071439    5.96685206645465    2.85855313763696
N        -0.29919349151250    4.35469935077482    2.28572686785411
N        -0.08551202783207    3.38931020886714    3.21542253007754
N        -0.30415024563661    5.92793391546896    4.66570714293111
N        -0.08310829098258    4.69786413026019    5.18559813977677
N        -2.68058832718000    4.57439355373431    3.79522711578846
N        -2.06217260956048    3.59291805881295    4.49327824355724
N        -2.49715329448169    7.54127317567263    3.40310899548971
C        -0.62101943668520    3.52413819780128    4.54206629757516
H        -0.33406658545278    2.64421521486336    5.12766449155763
C         0.28243993229772    3.95614389249936    1.16289322236268
C         0.88697945524506    2.70261059973586    1.38484055179012
H         1.43379020498962    2.13105628582745    0.66428995901828
C         0.63955838971802    2.36277142228688    2.68890819217645
C         0.31999620915472    6.80106858684529    5.44118286770001
C         0.96160932472764    6.10977103959190    6.48599573628894
H         1.54897302875734    6.54499958359836    7.26722375288699
C         0.69569688953469    4.77594545097640    6.29983509904380
C        -3.98433358664582    4.36569501744539    3.89128415326366
C        -4.20794086488877    3.21688201893620    4.67335168591507
H        -5.15899231544469    2.79588479081977    4.92437527861878
C        -2.97338894320428    2.74108703598679    5.03958807248776
C        -3.00929319144035    7.65086549311561    4.63252984570475
H        -2.80464959426775    6.84800729916204    5.33014343395714
C        -3.77291470872358    8.73044546936491    5.03215254291175
H        -4.16236643642420    8.76853352082205    6.03710934805609
C        -4.02495699095489    9.75104059070832    4.12647252254155
H        -4.61726163699416   10.60688328150556    4.40914142218714
C        -3.49422200221079    9.63659067842702    2.85380790924451
H        -3.65766702760522   10.39889578030947    2.10978079397322
C        -2.73878934721918    8.52158444373525    2.52991288771050
H        -2.31794918772702    8.41736153123824    1.53956123178485
C         0.27527743963746    4.69827531506463   -0.11467770489621
H         0.37757228948843    5.76709312928721    0.05573763504750
H        -0.67220606488073    4.53771624705882   -0.62882245547960
H         1.08275128553537    4.34659578503945   -0.75045378773863
C         1.03215726884842    1.15915547770359    3.46078900021656
H         1.66015173568320    1.41992238491965    4.31260754639569
H         1.59908429255952    0.49610530880979    2.81422975704657
H         0.15881877144588    0.61548437997885    3.82085269682964
C         0.30208108796762    8.26618628575224    5.22716765931520
H         0.19478503158727    8.49436497419118    4.16945438277879
H         1.22644483750420    8.70071395323036    5.59772770031214
H        -0.52767646976319    8.71765272742901    5.77134303602562
C         1.12091570878488    3.59419876090193    7.08708556941740
H         1.73926869381109    2.92425949445387    6.48996829049621
H         0.26455980349270    3.03653064560242    7.46579279304833
H         1.70981760039597    3.92850804191297    7.93600643124901
C        -5.01124405788865    5.23544744843743    3.27376009435480
H        -4.60648111377373    5.73328804236985    2.39565288203346
H        -5.34730437330076    5.98923598744060    3.98588452976728
H        -5.87103584571079    4.63685814817243    2.98514852521842
C        -2.60495183312612    1.56024344642365    5.85627756622842
H        -2.03084302872180    1.84781827531498    6.73695788175695
H        -2.02266464174910    0.84418280280867    5.27672017738983
H        -3.51175855492917    1.06474102702067    6.19003545332367
Cl       -2.58327904169497    5.83623117791692    0.94035480382027
Cl        0.10492811819198    7.37766904710628    1.94236606415498

