80
CSD_code = FECCIC | q = 0 | S = 0 | Stoichiometry = C28H37N7NiO7 | MND = 6
Ni        2.30214253467021    6.82294688639632   13.74119216479756
O         3.11220314917672    4.88759805396497   15.95040202989221
O         7.31058078698672    5.88345373091814   17.16409296463336
O         4.87417930690900    8.64662797859860   14.19539594005889
O         6.17929493133394    6.06849698837345    9.19192854364878
O         4.26753453338663    4.79019066807593   13.03694494749857
O         2.60709611628134    8.51009443722773   11.11144961644601
O         2.29977832237457    9.22823337081482   13.67646863111846
N         0.59029810542565    6.81693453070701   12.43431275246964
N         1.49363015064534    4.64844340554388   13.60781094265125
H         2.33673975714019    4.13198281617018   13.83759996994793
N         1.20769311428500    6.81485638302087   15.23222604469947
N         3.95201966664656    6.78057297840696   15.02653919565103
N         5.21879237834192    5.42889775451115   16.48705314890931
H         5.24464646004867    4.55149825612909   16.99541761359905
N         3.45996606244565    6.72172144954201   12.17621076263879
N         5.22340546046453    5.52713323480000   11.14994567023813
H         5.84055581101302    4.72558776185963   11.23256309552072
C        -0.00825530347607    7.93823860049373   12.05033569403705
H         0.17276330514993    8.81086993376513   12.66000979155725
C        -0.82718871704459    8.00504514894074   10.93629143433296
H        -1.28187937172222    8.94038289037178   10.65351423162546
C        -1.03581426074144    6.85327881395683   10.19449624879392
H        -1.65267039519928    6.86686862035505    9.30848696917418
C        -0.44536483199183    5.67702440712299   10.62079127914932
H        -0.59662028712356    4.75149302306676   10.08568653431241
C         0.36500811039030    5.69700590947803   11.75025214016221
C         1.02285112361313    4.43286342232190   12.26271169353121
H         0.30815739963361    3.59637970369622   12.18043663457451
H         1.87801309891320    4.20048572208403   11.62054015861562
C         0.49468265521255    4.53859353124332   14.65256098155504
H         0.62116545385953    3.62161434472078   15.24091927395853
H        -0.50697839012051    4.51683186564584   14.20297372969745
C         0.54553456558098    5.71408436312958   15.59599628379852
C        -0.12196275598316    5.63936885462140   16.81449677043389
H        -0.64009271738014    4.72983244724028   17.07642044783930
C        -0.09803492431958    6.71428175611206   17.68137065141309
H        -0.59386937306473    6.66363778503013   18.63884078883671
C         0.57981913585992    7.85651181751224   17.28618928528846
H         0.62567513483329    8.72835825013455   17.91870683314225
C         1.21335965398972    7.85978219273215   16.05755398680330
H         1.73294377588065    8.74268577933863   15.71138138587064
C         7.55190776956732    6.51212913998335   13.85843378443294
H         6.63670515991042    6.44043831037855   13.27509359502595
H         7.70783192380889    5.56526038625942   14.37145627580627
H         8.38460518786704    6.67582259812672   13.17798288941902
C         7.45505878271148    7.65785731710358   14.85845730349347
H         7.37550403776185    8.60683622045119   14.32556265480381
H         8.34934847913336    7.67516983540747   15.48349222090662
C         6.22312165646408    7.51437392633749   15.77364014870112
C         6.20842112124659    8.66470529945476   16.80720141687219
H         7.13552204569035    8.61645819079279   17.38163529121843
H         6.18522724403347    9.60806538975615   16.25818394191364
C         5.01535464289616    8.59224661798049   17.75405694107805
H         4.07791181615815    8.61317882357701   17.20080350897036
H         5.03148793783164    9.44061986498008   18.43475856176678
H         5.04525576610347    7.67981300644334   18.34671034706069
C         6.33341621155001    6.21241979253190   16.53203476536533
C         4.03009297865272    5.67280845287609   15.79916592232704
C         4.96096284156237    7.66163754110095   14.92654148204336
C         6.15402641381420    8.92916849055389   11.14438160393632
H         6.67135051220405    9.88478081436139   11.09885432139742
H         6.90294515579574    8.13949228551496   11.15209988535387
H         5.59502118381255    8.88961396407243   12.07688729710617
C         5.23337585662256    8.78328678244887    9.93854097809542
H         5.82840643826421    8.77517159865314    9.02303620509306
H         4.53732341634091    9.62306099871340    9.89789081258146
C         4.40209009192610    7.48079049687108    9.98045078399866
C         3.57449564337523    7.35502092634513    8.68387096377474
H         2.92564436740498    8.22932020863015    8.61005540709326
H         4.26299031539284    7.35130180618079    7.83743801958688
C         2.72933624270504    6.08652230909774    8.66210802274675
H         2.14217045469799    6.04377643303966    7.74746805793555
H         2.04484473135132    6.06834013575592    9.50889759905056
H         3.36120103033350    5.20099995125424    8.70309395225203
C         5.35910985666981    6.31601879682456   10.04362540952093
C         4.29626426006911    5.66058884334774   12.18431188112795
C         3.42800065842976    7.59837183229670   11.15055801051304
H         2.30331709745485    9.26071505115805   12.70233521701718
H         3.25365193806038    9.23932769316078   13.90416725768825

