64
CSD_code = FECDEW | q = 0 | S = 0 | Stoichiometry = C23H31CrN3O6 | MND = 9
Cr        6.65269854840992    2.67532644458845    1.16092501386331
O         3.44764088936497    2.66160634451818    0.76953759795216
O         2.07533895724715    1.23480349530690    1.84488418496179
O         6.92632214288339   -0.77575480241452   -3.57585154317219
O         8.50746755304235    1.85763314254191   -1.01464129150642
O         8.85717066731450    4.62441266771828    1.61741198575438
O         5.98578727713871    4.61737623570790   -0.99093270017907
N         1.28671162115871    2.50859877156602    0.13303624403626
N         5.44339604295119   -0.76714668731156   -0.40576891925672
N         5.14254364383059   -1.52610305717449   -1.41990223142300
C         4.51047695914191    2.17055779452439    1.51999560459105
C         5.14581082482339    0.96565892983987    1.14905791999187
C         6.28386591453387    0.57606797946632    1.90131884119540
C         6.70922412916511    1.30631045382014    3.00764039622621
C         6.03269621284291    2.48427945028769    3.37369849369183
C         4.91720600325211    2.90093312827780    2.64807660696364
C         2.23523261558415    2.06453654005409    0.97897452401803
C         1.53136915201926    3.48642729052471   -0.92614119393875
C         1.96678670204540    4.84469121470122   -0.37554752386057
C         2.51972395247072    2.96660905424040   -1.97142399269034
C        -0.05669740275959    1.95901918643456    0.30305928712468
C        -1.06622635958545    3.04710811781845    0.66416249701548
C        -0.49596498121107    1.16421494927381   -0.92580974034951
C         4.69587171841682    0.18698459547315    0.02277147473612
C         6.17295440685370   -2.39632223151588   -1.94802528137738
C         5.42316434510911   -3.20734989784978   -3.00290234824016
C         4.37217438664878   -2.22865725687067   -3.53142969466449
C         4.01827124397198   -1.36394785063086   -2.32252906353663
C         7.35147998643444   -1.57860864529711   -2.50170960049491
C         7.91043634878075    0.13895971961827   -3.99391856598901
C         7.78962150930017    2.13670647235185   -0.14896479665686
C         7.99716840319987    3.86230161460262    1.49118654312112
C         6.21682301940827    3.87785682049039   -0.13215505923426
H         6.75017564686073   -0.36659222695778    1.64357879406940
H         7.52927190759020    0.94510877056830    3.61617470514171
H         6.32280262965343    3.02023497395387    4.26961585844319
H         4.33648217718109    3.76427009847298    2.94845534576586
H         0.56451095217349    3.62018208901511   -1.41902130570285
H         1.30039615579067    5.16134771220510    0.42352347230663
H         2.98269213912020    4.80327873617075    0.00425171807839
H         1.93002722299377    5.58356584140935   -1.17197005852392
H         3.52572066078129    2.91025527337799   -1.56589993691958
H         2.21753879704930    1.98138427151316   -2.32161604302544
H         2.53472094884077    3.64474145361773   -2.82074698138720
H         0.02678036967032    1.26921703915017    1.14942805333098
H        -0.72173757445319    3.60594411931771    1.53069550850766
H        -1.22257279246401    3.73980281777850   -0.15944580527962
H        -2.02017240753589    2.58766092865493    0.90862858508753
H        -0.62679515001597    1.80654985616020   -1.79357319059578
H         0.24140461958619    0.40114309296010   -1.16330097936115
H        -1.44319448345335    0.67344820211420   -0.71902942550126
H         3.74819190013981    0.46272805977792   -0.43896484821477
H         6.56636632910122   -3.02267047830061   -1.13965081296267
H         6.08463733248527   -3.56059442372644   -3.78963670752894
H         4.94279210269515   -4.06610473928136   -2.53183851538676
H         4.81762405954528   -1.60763454037191   -4.30543597563280
H         3.50149104760646   -2.73968215575234   -3.93865615709103
H         3.89740571934017   -0.31093244764503   -2.59848392290411
H         3.10176970429054   -1.70422679532647   -1.82322521732442
H         7.74376130112430   -0.94584805731198   -1.69135692144739
H         8.15245473563442   -2.26217039083342   -2.82701943997049
H         8.19219510379207    0.81642862880955   -3.18114879855802
H         8.80734070516931   -0.38298805903225   -4.34993132835531
H         7.47477170590612    0.70996236484185   -4.81128333773993

