63
CSD_code = FECGAW | q = 0 | S = 0 | Stoichiometry = C24H36N2Zr | MND = 13
Zr       16.15249334115541   10.22004323537983    6.29406747215529
N        14.34804850934661    8.88484554382494    5.27809402329388
C        15.31147063558363    8.32313826541093    4.60609431892973
H        15.09036319989614    7.55356410373683    3.84477303220038
N        16.55638544556700    8.69778969291718    4.85085699933186
C        18.40270952417660   10.44879501210053    6.30155754376703
H        18.92346820717929    9.52103011322937    6.58343425370369
H        18.73324966338482   11.21602564663696    7.01788361804040
H        18.80230192216752   10.74726716244936    5.32057152521504
C        13.00301974651177    8.39856394967891    5.01773283621159
H        12.90756906643371    8.10904230814366    3.95433031902188
C        11.96840733060909    9.48581153994715    5.31597390823052
H        12.16281636967624   10.35699314374845    4.68819729498869
H        12.07011811024095    9.79124683835261    6.35931340114206
C        10.55228943113457    8.97490417555821    5.06506504397983
H         9.83112999777282    9.76139755758936    5.29842434997467
H        10.43976598999747    8.72370126267240    4.00732198135047
C        10.26428595547683    7.73716897534009    5.90894589537403
H         9.25601481957933    7.37163114753903    5.70255739437863
H        10.31513346995263    7.99925123843311    6.96822779849676
C        11.28634276270951    6.64539829565022    5.60898385980388
H        11.19447767091479    6.34165678819350    4.56304098788503
H        11.09018088566092    5.76824505003992    6.22973479698630
C        12.70001432712326    7.15500016023468    5.86920798769351
H        12.80820838610894    7.41329125903865    6.92399084428301
H        13.43143095108717    6.37567259084882    5.63890423960542
C        16.65550811049529   10.23988614535914    8.80504350749806
H        17.43120693984815   10.83623086054043    9.26956126037402
C        15.29587511673168   10.59116484004289    8.70391614882849
H        14.84499037834576   11.49609418826180    9.09211311062519
C        14.59379945178877    9.47864738803613    8.20407699879534
H        13.51752255659825    9.39915892124660    8.13398231797769
C        15.51622355318125    8.43096740865654    8.00383988644325
H        15.27611328905394    7.41242882403358    7.72570334224496
C        16.79091587227485    8.89944865164220    8.37404636668541
H        17.68871196453624    8.29766981494015    8.44733327872477
C        16.66713557997153   12.67287879159216    5.56102781031380
H        17.61215843122433   13.18760635124806    5.67080693407527
C        15.60353727637344   12.70396405055106    6.48112028633999
H        15.59356902572507   13.27223019769405    7.40362121140420
C        14.49435808948939   12.05949025910148    5.88811557499362
H        13.48721558758501   12.03947794655246    6.28782952259948
C        14.88104806150050   11.63706921943619    4.59767057974661
H        14.23139354016562   11.21797112268539    3.84047000537365
C        16.22705978135788   11.99681204101303    4.40406922600936
H        16.78589349314240   11.89275806636963    3.48202371565756
C        17.63768109039912    8.08288389090576    4.09193914014434
H        18.56806556077307    8.54378050251498    4.44830719118694
C        17.74292642362097    6.57112095683896    4.34489408276671
H        16.83956859310720    6.07129514046746    3.98896941603725
H        17.82102569210333    6.39853476288394    5.42191992685599
C        18.95698044678170    5.99947412658870    3.61850979470820
H        19.86517611509724    6.45678217091450    4.01736958939400
H        19.02017685923177    4.92303516566179    3.79173935592550
C        18.86534743590238    6.28006316389173    2.12079517170454
H        19.74773306236600    5.88367577168395    1.61434371635192
H        17.98913484306035    5.77229621628246    1.71081699627236
C        18.74781256719529    7.77966650285262    1.86067125276282
H        18.66293763668814    7.96503770313346    0.78774152994828
H        19.65080910191628    8.28056593081079    2.21671565515776
C        17.53308052000775    8.35441965363284    2.58357712249478
H        17.46451063766157    9.43379936549505    2.42287464460362
H        16.62500159524035    7.89723882974026    2.18515860294765

