58
CSD_code = FECKIJ | q = 0 | S = 0 | Stoichiometry = C27H24N3O2PPd | MND = 4
C         8.05271831478543   11.38262572009715   -0.18665688112059
C         7.38418617149707   11.03096660945322   -1.38332205643215
H         6.66696237562260   10.22592419600388   -1.31215719114502
C         8.53527241916967   12.71773097339894   -2.62280314056652
H         8.70529654952705   13.25082063864439   -3.54586453148863
C         9.03017934100757   12.42444358344363   -0.25490797898136
C         9.47667658297719   13.06097332398957    4.47125389689581
C         5.48431615483930   10.60791120617240    5.82680725940000
H         5.36659245093456   11.58235861674949    5.36721030287774
C         5.13832918243789   10.39903881499163    7.14741304050277
H         4.74171067280078   11.21086857714965    7.73878338908020
C         5.30764711699109    9.14462205208848    7.71473691296832
H         5.04069294785834    8.98043221813568    8.74800962961039
C         5.82392014333016    8.10457563735639    6.96042394144960
H         5.95853064209050    7.12980872466854    7.40580840088469
C         6.17223312751020    8.30864657591668    5.63567932703445
H         6.57963434132701    7.49851295293811    5.04690501964676
C         4.75601146844664   11.55232620057293    1.87227205701375
H         5.66487890834958   12.14545494975973    1.72924635755842
C         3.55511433275275   11.94278147534084    1.30757454991632
H         3.50487780368892   12.83867355920893    0.70680515219955
C         2.41464315171067   11.18324515112514    1.51633851820391
H         1.47755050236121   11.48484005286803    1.07236368710189
C         2.46867014281820   10.04505047579072    2.30562151661840
H         1.57303416259551    9.46714314736042    2.48102826612574
C         3.66624491738461    9.65023975427665    2.87451269571870
H         3.70667596525122    8.77868979396665    3.51381354325461
C         6.97589441417052    8.37307424584782    2.63725201973078
C         6.71336578895148    6.25653443686201    1.54352603032773
H         6.07689481313345    5.51176163696401    1.08832294924310
C         8.08173318438357    6.05388102642641    1.60154362932635
H         8.50996229960060    5.15013615830855    1.19387399397869
C         8.90611097673235    7.01538722532073    2.16767876809425
H         9.97447857699816    6.86014564175350    2.19765587639946
C         8.35650781602514    8.17497166151445    2.67915478815837
H         8.99106133549587    8.95857635472485    3.11018646414479
C        11.14395296987088   13.54854723210755    0.64887802813771
H        11.04901019609949   14.63258200550860    0.73183359751576
H        11.53159230097893   13.30541415893006   -0.33482943283673
H        11.87055303308898   13.20704959680229    1.38712011969122
O         9.97423407437238   13.68676807361048    5.39302118656138
C         7.61583349343541   11.67394448926371   -2.57013636164420
H         7.07727233373254   11.37974228040133   -3.45947362929986
C         9.22476964708077   13.06824633023632   -1.48727998863022
H         9.91408918547128   13.89713208999724   -1.54453885161037
C         9.82009344097642   12.86367426666055    0.88668965759801
C         5.99697507210250    9.56166332958018    5.06309445367340
C         4.82009040275276   10.39213770251989    2.63980120367927
C         6.15529126018609    7.41453001973975    2.06019424232750
H         5.08934289686006    7.57734278626375    1.99769929195756
O         7.75059179828430   10.68619221187727    0.86707059780605
Pd        7.99635981974903   11.43136015776876    2.72813946444289
N         9.39835674436341   12.69551653657022    2.10004022445868
N        10.06763105010075   13.16514063859103    3.18400795639965
H        10.78031415398432   13.87818728065280    3.07721541154290
N         8.42834648615099   12.24713931679533    4.49353749501009
H         8.02513048989215   12.14537731135981    5.41897053352132
P         6.43866005482723    9.95923881551582    3.34275459598844

