54
CSD_code = FECKAZ | q = 0 | S = 0 | Stoichiometry = C19H27CrNO5Si | MND = 9
Cr        0.87785811970108    5.97029077387008    0.78441200870232
Si        2.04152012312299    5.95331347106173    4.33867058296188
O         3.84274577530375    6.01841285926731    1.97455737534164
O         5.26787017212118    4.30339501814078    1.62615272679122
O         2.08073113943780    8.64937346917446    0.32006089708816
O        -1.32836262758960    7.69067272081226    1.79513709067001
O        -0.47401103639929    6.68309996213950   -1.76931272463033
N         6.06407362297222    6.41412331588422    1.94766708907041
C         2.75516188804433    5.21312878355084    1.68111148080095
C         1.77515543841078    5.08435518637420    2.67547493401877
C         0.61838253767953    4.35479336401718    2.34404661089887
C         0.48005377421339    3.72389281843226    1.10418871157972
C         1.49645692043101    3.85108608565413    0.14365440154452
C         2.65502553277550    4.57317774889352    0.43398745537147
C         5.10252865429957    5.48443789154926    1.82223649380946
C         7.46270608989553    5.97853380081858    2.00536853388028
C         7.69425758242924    5.02781846778190    3.17944530065541
C         7.90254698999114    5.34750027632678    0.68536700726285
C         5.75534812028037    7.83675714723850    2.07614999057796
C         6.05291298517672    8.33864763319183    3.48887453777987
C         6.47824776365970    8.66623003445505    1.01508798984077
C         2.06568261347406    7.83377426289087    4.03741494947105
C         0.56295511410078    5.51990973445783    5.46424559627762
C         3.64212038427013    5.29251339603125    5.14803602316369
C         1.62911407942819    7.60018511763455    0.50315614572425
C        -0.48735850751195    6.98553673192360    1.42780697428295
C         0.05401011236448    6.35665668196800   -0.79417702152025
H        -0.13833898432202    4.20222526488502    3.10453135303976
H        -0.38295787970067    3.10219490526468    0.89906033393523
H         1.42117892833168    3.31641953761112   -0.79613391041619
H         3.48128547535453    4.61383790447854   -0.26389766807838
H         8.05316041334616    6.88184496158400    2.17445156408065
H         7.37160757210016    5.48675671267691    4.11155498593610
H         7.14100620241420    4.10555298208341    3.03006570855861
H         8.75249964777241    4.79210783870212    3.25532822688754
H         7.34082659713957    4.43626144912332    0.50448620534687
H         7.73654609671237    6.03516250688925   -0.14029909023517
H         8.96102231496555    5.10503129955872    0.72962567304942
H         4.68371838664461    7.93740677516076    1.89152691802014
H         5.51044366722633    7.74510981674076    4.22069906546065
H         7.11609926560828    8.28481311792272    3.71138714989407
H         5.73573832107149    9.37374158375137    3.58115198119070
H         7.55070594284454    8.70864667905284    1.18728291436263
H         6.29702737095184    8.25324556491904    0.02609588442207
H         6.09064013310217    9.68105725188714    1.03578288837851
H         2.87744265988585    8.12769429938908    3.38151758844647
H         1.13985224778958    8.15704946437125    3.56790855216169
H         2.17599997421906    8.38118111305925    4.96847257306317
H        -0.37108323518162    5.89145247541289    5.05431981245785
H         0.45964183100850    4.45077374941913    5.62503101448949
H         0.69295313603862    5.97996429538722    6.43787981168946
H         3.53195160920062    4.25491125932276    5.45132165984556
H         4.49475273269381    5.34506922139050    4.47915109405752
H         3.88184621067785    5.86787121642759    6.03717654853795

