90
CSD_code = FECNOQ | q = 0 | S = 0 | Stoichiometry = C46H39BClP2Rh | MND = 8
Rh       -0.03739365032233    3.11437263381981    7.12023706603257
Cl        0.73015098664315    4.14988036818202    9.17587582345929
C        -1.04418970828536    1.18796219844504    7.47527450479580
C        -0.75514090730913    1.36967583347776    6.09063931811676
C         0.65775581448511    1.44284543086911    5.90220058533191
C         1.32301606236959    1.35677045804490    7.14564302011285
B         0.28223062811005    1.01812954236311    8.24786396809418
C         0.50285889791069    0.73536314235581    9.76527467471663
C        -0.54156291130678    0.29071179503666   10.58209529627526
C        -0.35783662725961    0.06522538204354   11.93291769049768
C         0.88260041128668    0.28131699981573   12.50985784939516
C         1.93483492106123    0.71856188479098   11.72268964391062
C         1.74576430203578    0.93748397385763   10.37171978377172
P         1.25703734658543    4.66538758923650    5.98451013990678
C         1.27899430585403    6.41677326173851    6.49977081840890
C         0.38138919453106    7.30050813715195    5.90370557117723
C         0.34879176051898    8.62813659968987    6.28087434890248
C         1.19449905905810    9.08548279678864    7.27811762847573
C         2.06846502366684    8.20691492502526    7.89429808604077
C         2.11396816753071    6.87858355115847    7.50982978251663
C         1.00552833944263    4.88035985180986    4.18373669121022
C         1.67227944933050    5.88149768303852    3.47921109249456
C         1.48341126376674    6.01605804396830    2.11695230929448
C         0.63081969596168    5.15545824445147    1.44133343288916
C        -0.03524590075720    4.16028882522591    2.13467548445483
C         0.15217829720378    4.02534221522311    3.49982243540787
C         3.02457041586998    4.19009483927626    6.05359402943243
C         3.57189252239477    3.91053638915181    7.30614197461068
C         4.89057008946607    3.51153696253814    7.42082969812524
C         5.67576180709529    3.36584076950422    6.28882485666686
C         5.12903092485072    3.60941373189805    5.04084618678703
C         3.81100125235442    4.01489758325092    4.91950765475429
P        -1.96802137033469    4.32339159200857    7.30299115661002
C        -3.01791663151627    3.97855571749487    5.85234006655071
C        -2.74241005585687    4.64331897169094    4.65959856438631
C        -3.43578014857851    4.33351783299505    3.50533874133207
C        -4.40118901602700    3.33912341208773    3.52428786236120
C        -4.66365191139341    2.65562000821294    4.70015334711174
C        -3.97408184346110    2.96862220143024    5.85843094215889
C        -3.04513635552696    3.86714091667771    8.70869861747761
C        -2.54206884265701    3.15459845459138    9.78900887342585
C        -3.36496116865598    2.84372456138228   10.85817482065328
C        -4.68926736755799    3.24521814294170   10.85591617426950
C        -5.19039237108267    3.97316232507426    9.78675731151166
C        -4.37239241069882    4.29133576131758    8.72035310558453
C        -2.12057944078688    6.13399004226313    7.52717340706560
C        -3.03369913577579    6.92104154648076    6.83357563125401
C        -3.17021476127597    8.26191833243749    7.14659937398927
C        -2.41182746479779    8.82578932565260    8.15805926742907
C        -1.51189417004718    8.04201925553250    8.86069194717254
C        -1.36670319277383    6.70350339084364    8.55022275334930
H        -2.07314961681359    1.04403322770074    7.79208284191885
H        -1.48018695268723    1.31865812240291    5.28534283166056
H         1.14549012628349    1.49498012743229    4.93392049643816
H         2.40811050489736    1.37408194994664    7.17673166209896
H        -1.51625476156501    0.12076362237207   10.14487809525837
H        -1.18360295994703   -0.27758023075514   12.54218745988796
H         1.02753569851517    0.11126604970990   13.56759000655602
H         2.90481702130908    0.89075608534918   12.16831340205482
H         2.57202495087063    1.28775956664043    9.77001242287147
H        -0.28698021764632    6.94863471571641    5.12935638578072
H        -0.34219026627475    9.30547198993375    5.80067941833894
H         1.16761477940335   10.12350671922592    7.57512349038083
H         2.72265233790144    8.55677785026369    8.67930038177006
H         2.79851019382882    6.20276036331752    7.99678325978503
H         2.33599088878711    6.55427435114788    4.00508515812293
H         2.00419850290541    6.79377246834420    1.57744851234752
H         0.48718887978993    5.26408980532242    0.37633228131147
H        -0.70309518626664    3.48857179827344    1.61496098803037
H        -0.37926215987364    3.25892688661983    4.04736111627056
H         2.95112355410280    3.98101738372630    8.18930125224039
H         5.30337634149250    3.30267586940291    8.39712806871644
H         6.70492976912054    3.04991826406031    6.37704412367607
H         5.72939647293657    3.47875843005364    4.15183727797471
H         3.40105801051206    4.18539318112375    3.93471854881015
H        -1.97309751477136    5.40418157231028    4.64573512969198
H        -3.21793890445356    4.86309901091737    2.58905425811684
H        -4.94245974566496    3.09261116456363    2.62271874906133
H        -5.40718928124073    1.87182789803485    4.71440317196697
H        -4.17906809166977    2.42856089242595    6.77219167355331
H        -1.50668288805796    2.84586914484184    9.79891734570303
H        -2.96438556056488    2.28687070604011   11.69219380429907
H        -5.33322182933940    2.99821776661844   11.68743413966697
H        -6.22152349837596    4.29630628491193    9.78798110975751
H        -4.76119074583111    4.86675210932530    7.89081426995514
H        -3.64469138816611    6.49591279919059    6.04993015321148
H        -3.88111026792738    8.86640824895788    6.60096919782424
H        -2.52724697320212    9.87221209983063    8.40035448365472
H        -0.92154840302983    8.47257706128468    9.65552552773439
H        -0.66148439462565    6.09162120907781    9.09411409375591

