82
CSD_code = FECQAG | q = 1 | S = 0 | Stoichiometry = C37H41OP2Ru(1+) | MND = 8
Ru        8.76002407992697   23.78714980389906    6.87203204101183
P         8.29118414482200   24.99903260855029    8.75899562005113
P         7.33772443802690   25.38685753897104    5.96434515508178
C         7.81598174989194   21.95047470001405    5.91229197461627
C         9.19346499831371   22.06946125155786    5.52146637995904
C         9.99893572322134   21.93707074299683    6.70609379894293
C         9.12152686963423   21.80027651536188    7.82143330580430
C         7.76220906346827   21.82460238033612    7.33233846402107
C         6.69313917990984   21.75107503675259    4.94263327844012
H         6.78672588164911   20.75705663019752    4.50130998901502
H         6.72417532423800   22.48208807340578    4.13455317516373
H         5.72173348197875   21.82120217845290    5.42481801516733
C         9.70380446773739   21.93242306225626    4.11853063927953
H         9.86177028803990   20.87436748883604    3.89919691710657
H        10.65472574102090   22.44569594976193    3.98586140394180
H         8.99063987264011   22.32175647241939    3.39481270847677
C        11.48082015865231   21.72218254124661    6.72899826804840
H        11.68692053331789   20.65864759376371    6.59322344288271
H        11.91281417246350   22.03163630556932    7.67854622544241
H        11.97828658076848   22.26637509493239    5.92858700272894
C         9.53072299703855   21.37080217255888    9.19472355084155
H         9.67962342158338   20.28898042473743    9.19492437463544
H         8.76887662933128   21.60811460620598    9.93394967436471
H        10.46464817751263   21.83868286516745    9.50019874536026
C         6.59262284499336   21.33914383990963    8.14096221541530
H         6.71558113837781   20.27080721998445    8.32976366222409
H         5.65282273658565   21.47859896799123    7.61241606718587
H         6.53266355034069   21.84189905987892    9.10596267395292
C         6.74148859257560   26.01186788804091    8.60280091427873
H         5.77740159504677   25.50733392522548    8.55314055444850
C         7.12892573760918   26.70280298371704    7.27599808657557
H         6.37818090119790   27.43892954700830    6.97341942230273
C         8.52224629921234   27.31451738994014    7.52378048673451
H         9.20822272083083   27.07557836308157    6.70308570707058
H         8.47262833190905   28.40112357705367    7.60994852311765
C         9.00934187792161   26.70826736590224    8.85822841000510
H        10.08462054626447   26.79805477042819    9.01083288585364
C         8.14735660949928   27.33202489505059    9.93409367283381
C         8.74806287316058   28.27003976730660   10.91809077351877
H         7.99868668185793   28.67921967921915   11.58818057990241
H         9.24274769718951   29.09210959751969   10.40142408917063
H         9.50062372055800   27.75167803958161   11.51191398840887
C         6.87142359843659   26.97380595048423    9.75957219817368
C         5.65431728436926   27.41037638171705   10.49693538268333
H         5.89869096529918   28.13677723728308   11.26528185822308
H         5.16892830541123   26.55716156342427   10.97032133906891
H         4.93904861718187   27.85930398610633    9.80790295411934
C         8.37586252819927   24.36399771522543   10.44169990402426
C         9.62813206475587   24.27283489772507   11.04401163377866
H        10.50174989604836   24.60808116641332   10.49948411020670
C         9.73804670819433   23.76328821612787   12.32411000687622
H        10.70477040370649   23.70031425913564   12.80017803713108
C         8.60446258816210   23.33150215441504   12.99631677900725
H         8.69174155716751   22.93274563640039   13.99513534554203
C         7.35975136054544   23.40726287845704   12.39117992598397
H         6.48147042934741   23.06741282355756   12.91910300789264
C         7.24108194957570   23.91833780731283   11.11109953080842
H         6.27336998918175   23.98450507111779   10.63261505067642
C         7.90986255456303   26.32172224375503    4.51886681872766
C         8.84585327595976   25.71193182695687    3.68950553976856
H         9.20834202898558   24.72377225114414    3.94639109345589
C         9.31119558205251   26.36431588739973    2.56238874452850
H        10.03790132532285   25.88699270239933    1.92286609946555
C         8.84605151913802   27.63375752584766    2.26026299133551
H         9.21094582909377   28.14794376767664    1.38470511884325
C         7.91296877402851   28.24640834860440    3.08269170069376
H         7.55185218237201   29.23558980872840    2.84550320097327
C         7.43963257101744   27.59615047750252    4.20760460329279
H         6.70719983186248   28.07775084405498    4.83894403680561
C         5.61829973417323   24.94701754319688    5.56185498817584
C         4.98552471658511   25.37743571991793    4.39970428237689
H         5.52122473642213   25.97703397853526    3.67871892784264
C         3.66590441162989   25.03068520488809    4.16549352382140
H         3.17893237369295   25.36792052239133    3.26331143775497
C         2.97106524844518   24.25538170627101    5.07897097774055
H         1.94174563279212   23.99158517387685    4.89187888567462
C         3.60303786796064   23.80728787889571    6.22854892070422
H         3.06666230520773   23.19163991434066    6.93582191207610
C         4.92290928835728   24.14262105501834    6.46313810823449
H         5.43493574799847   23.76961439936420    7.34121439231884
C        10.25599275077611   24.80391421244240    6.48847627385222
O        11.26170903561164   25.28941034712097    6.22908349396295

