76
CSD_code = FECSUC | q = 0 | S = 0 | Stoichiometry = C33H38ClNiPSi2 | MND = 7
Ni        4.39950232652249    8.16124858179564    0.23860210202910
P         5.96177149998717    9.64755795219243    0.18734189040419
Cl        5.82113666377868    6.78728047847699    0.94296925929317
Si        2.32912359728309   10.01944167252129   -2.16342586848663
Si        2.72866955829072    5.06945890980016    0.82747176208862
C         2.65999988632883    8.94297753648151   -0.64756748053867
C         2.71011276745320    7.53711279563300   -0.76083199789410
H         2.70859105519250    6.99095135943092   -1.69294229389894
C         2.78162816002199    6.93833123894972    0.52264853780744
C         2.49641566446970    7.99610887141161    1.48716954822399
C         2.28232960349263    7.96799823873706    2.86051239157504
H         2.32514906791687    7.03511667271204    3.40143082778509
C         2.00946304214548    9.15688631377344    3.51561283819188
H         1.83168139332275    9.15042315940858    4.58115685501639
C         1.95555298311273   10.36138388496252    2.82253732856734
H         1.73658531013212   11.27218696964319    3.36150753133938
C         2.16921072828175   10.41451278319261    1.45509649028931
H         2.11974054746445   11.35468290385593    0.92730882985625
C         2.43802845412840    9.23398205833124    0.77372756812659
C         0.73938239188253    9.30648828261981   -2.95417780011708
H        -0.09611805258453    9.33454813852260   -2.26062918023466
H         0.87085748898992    8.27434014238332   -3.26410357561604
H         0.45641238311182    9.87887829163397   -3.83217753435980
C         3.78156836072234    9.83270302038941   -3.39013764027429
H         3.96805781592331    8.78809752492526   -3.62377721513558
H         4.69834168466964   10.24965462610872   -2.98192228270625
H         3.57542842103888   10.34467281041725   -4.32535885233317
C         2.03156723932855   11.86606489024613   -1.80846349218011
H         1.87262531944880   12.39532738422795   -2.74321591276094
H         2.87649303374200   12.33071675360365   -1.31180881286702
H         1.14861960302499   12.01885655803069   -1.19581152950881
C         3.50858539413412    4.52986514526043    2.48070586626069
H         2.85443956474897    4.72726422177620    3.32492734909758
H         4.45162717574661    5.03914918997786    2.65200482066261
H         3.70841479410858    3.46249941799551    2.46964499210705
C         3.60320799668280    4.20515071587984   -0.63032687740827
H         3.65572857399163    3.13267859529064   -0.47143801865214
H         4.61918174408887    4.57379052147719   -0.73735548454324
H         3.08434882824249    4.37077566118886   -1.57038668888676
C         0.86190357807769    4.64827116459724    0.82237750856407
H         0.33137878102365    5.17515386080826    1.60966108645911
H         0.71550149783328    3.58508640965731    0.98001883464509
H         0.39218689085290    4.90989278267803   -0.12085752445098
C         5.86906894211431   11.31941953496728   -0.54905680248494
C         6.50355473003930   11.65743388389886   -1.73831383108298
H         7.10246947897974   10.92175803414462   -2.25733395117934
C         6.38437615246111   12.93841370197054   -2.24956525169469
H         6.88371516742482   13.19504999147796   -3.17243210945037
C         5.63366467786153   13.88969996542570   -1.58019761899350
H         5.54575749031217   14.88908350118370   -1.97956010580270
C         4.99501303918975   13.55701583844415   -0.39547903769979
H         4.40924048926389   14.29785763190674    0.12951437078694
C         5.10511839053887   12.27664743622671    0.11320225756231
H         4.60735741029385   12.00742684320523    1.03526049398195
C         7.46168272313290    8.97838965754984   -0.60127817761721
C         7.24915110928051    8.25772771521272   -1.77448456181081
H         6.23027144726089    8.11506873887749   -2.12210322528663
C         8.31405456736451    7.71103040924231   -2.46235654491998
H         8.14363363354823    7.15206879859765   -3.37075854254866
C         9.60174671160775    7.87012617424980   -1.97421777625843
H        10.43729088315018    7.43837592806526   -2.50516848176940
C         9.81461256176466    8.56481774371897   -0.79608000038591
H        10.81637504386589    8.67038394840928   -0.40580848894245
C         8.74962545485661    9.11977561675744   -0.10625561745685
H         8.92191489991582    9.64056873798220    0.82350671038010
C         6.43749347124741   10.12960552078045    1.88034389288382
C         5.81987260339080    9.49926095638377    2.95390832754202
H         5.09511077870531    8.71408590004333    2.76386689569482
C         6.12685390931943    9.86796294006814    4.25114717170712
H         5.64083425157571    9.37445614438165    5.07933430020084
C         7.05298721685408   10.87038316270941    4.48381337416045
H         7.29697440223490   11.15888862174738    5.49567537910313
C         7.66166345884726   11.51323262233794    3.41694127233312
H         8.37672677942946   12.30270836481898    3.59834623001318
C         7.35124678973279   11.15379248658547    2.11872213098554
H         7.80570851631440   11.67771495755973    1.28864916245278

