42
CSD_code = FECVAN | q = 0 | S = 0 | Stoichiometry = C19H12ClN4O3ReS2 | MND = 6
Re       12.30906907860715    3.64966637579349    9.15950828007098
Cl       12.11610388604046    1.38256827507075    8.50085602438356
S        15.69578935982441    1.29991731200697   11.04659085838918
S        13.33627352762623    6.20175912320713    6.62253496259037
O        10.49440980126036    4.27231931096241    6.73710681895679
O         9.88453716757523    3.31127758455449   11.03772539701484
O        12.92531530359018    6.55367960224187   10.02016928475462
N        13.69289691798578    2.81083575259751   10.55702675418014
N        14.21458346380063    3.37277375933769    7.96928434094997
N        13.20178412660827    4.43733518964295    4.76277922485025
N        18.40212243097403    0.75890242748742    6.23294703267422
C        11.15983586275259    4.11039321090944    7.65367640212479
C        10.76526045566142    3.50076940344655   10.33161719389878
C        12.67813473925076    5.47990206816115    9.69146698021645
C        13.61457704399565    2.49594962855698   11.87039928408686
H        12.80202633703023    2.88129488684747   12.46172854967168
C        14.60853300698165    1.68939824417796   12.31973823368623
H        14.76230116758489    1.29887820722220   13.30467855732098
C        14.72946757337342    2.25637071458000    9.97616611176216
C        15.01355078193688    2.47564597441829    8.57759699884962
C        16.02898512659200    1.78590381842401    7.93051494434835
H        16.58629755565353    1.05438229720552    8.49184316486060
C        16.23705169727859    1.98385696428657    6.56402568114723
C        15.40304967661943    2.92134239517846    5.94307453192637
H        15.50467358189093    3.13970061748942    4.89355102672307
C        14.43267071778340    3.59932367547565    6.66838920807542
C        13.64625252680357    4.60139811274063    5.96092724059322
C        12.55233294986446    5.52383707464321    4.30560096338717
H        12.11144952871897    5.49278168246579    3.32628473206739
C        12.52283652304575    6.58174356153502    5.16139383818768
H        12.08228437703544    7.54727494575512    5.02054230017886
C        17.20832841787520    1.26315465962609    5.77920091265014
C        17.09217783513963    0.92062836241193    4.43905100203931
H        16.25549210650197    1.14123939279991    3.80693665094437
C        18.23067303533449    0.19165917884466    4.08827603802737
H        18.45083665364907   -0.23238003027906    3.12942937402562
C        19.02009775232214    0.12431434605693    5.20996821687009
H        19.98326889242670   -0.32847372690558    5.34412321858803
C        19.00223370557913    0.94765330562485    7.52490372383698
H        18.74271656946491    1.92726997633722    7.92671505196408
H        20.08608421014289    0.88858156502198    7.42544955503202
H        18.68323452780859    0.17497077405163    8.23050133405990

