86
CSD_code = FECWOA | q = 0 | S = 0 | Stoichiometry = C38H36N4O7Pd | MND = 4
Pd       10.82781002869848   11.90445599230472    4.01795699321796
O        14.02287709348151   11.34564663468080    6.52077702454065
O        10.02728722916274   15.69474115449841    2.70200681054778
O         8.37662578842732   10.09103546331496   -2.19122211065740
O        11.93610360171103    5.92139688731696    1.34611506137269
O         8.85091111065226    7.68749137839907   -3.62788866494536
O         9.38136135319813    4.87577278152707   -3.55486598974680
O        11.06478038689392    4.89692371405711   -1.23587116103002
N        11.95207398348662   13.34187649348731    4.48415859401471
N        12.11068074775413   10.92542708741300    5.31949076930440
N         9.67160567878315   10.38649133087212    3.52191175103296
N         9.81053375228468   13.43680586005480    3.07148638088683
C         8.51542870271237   10.87186611529443   -1.08434921535303
C         7.39370626642857   10.94884113887900   -0.25823646338842
C         7.40733894317231   11.74413307201678    0.86643867173096
C         8.53520898002996   12.48689437361399    1.19914673648024
C         9.65679177419445   12.38779788993557    0.38817345150131
C         9.65703621380181   11.58735026333092   -0.74329736817670
C         8.53202274132936   13.40433471508042    2.39099912984582
C         9.48554817196986    9.90433671481040   -3.03707501002128
C         9.37421876240988    3.89026878230561   -2.55217146370138
C         9.05202664054296    8.97038892689098   -4.16132798205831
C         8.35059314437189    6.76308007514010   -4.56145535531244
C         8.12612282534252    5.43837350792581   -3.84187955587849
C        10.79337017273107    3.75769190395108   -2.01309590585066
C        12.38745688410421    4.95925987221953   -0.77143134026742
C        12.53675705936171    6.19871873927036    0.10317154532920
C        12.53527168792326    8.13593894204880    2.19055848815392
C        12.55522285224260    8.99878645168589    3.27615578493983
C        11.97279278453313    6.87129059176948    2.31939872314788
C        11.40159637102559    6.50541069164073    3.53954246849885
C        11.43249844086122    7.36786550277071    4.61287511742789
C        12.02820462926142    8.62057103038042    4.50389981971311
C        12.12304740488416    9.53004252568310    5.69884226344406
C        13.10762828699343   11.69301777763237    5.77978687625804
C        13.84870298642574   14.15485033553583    5.63091607048005
C        13.60124037996189   15.42122697986326    5.11970687192345
C        12.50371165579337   15.62953192959248    4.29605019231637
C        12.98803203921913   13.11915965768076    5.28829829860061
C        11.68381841390506   14.54909891058514    3.99392287991354
C        10.41645951720544   14.62832390715567    3.16999366436429
C         8.21125881997568    8.10520838756852    2.89640974393960
C         8.07820445705077    8.71874413316675    4.13946655056420
C         8.82641820027882    9.86647137779773    4.40752950196010
C         7.20606617631332    8.19317190930302    5.12196226096621
C         6.47113189421297    7.74339729402494    5.95747249963884
C         9.35425410013426    7.57943847441138   -0.39850843293474
C         9.24725784383631    8.08807362637116    0.68473424517617
C         9.08811970504872    8.66251750940812    1.96747264039331
C         9.80339952868928    9.80389774814518    2.33180856859125
H         9.44638319904300    7.15094404511408   -1.35565041102492
H         5.82839982531914    7.35164438101667    6.68849732818769
H        12.26085568410477   16.59761424712139    3.88717573735375
H        14.25565112040433   16.24344369305879    5.36855614975228
H        14.68036793527129   13.94581199530714    6.28502306849389
H        12.96697749517539    8.45688414189002    1.25555547506110
H        13.00947719831408    9.98222286682088    3.16818469665355
H        10.99840822988629    7.06345276857145    5.55460002026987
H        10.95126546109472    5.52878120496409    3.61972359899854
H         7.64804837470227    7.21609380055020    2.65732624022518
H         8.74310760740402   10.37129740136209    5.36772157862747
H        10.49711771611188   10.26229194565762    1.63395085387820
H        10.54461914709835   11.54212825013604   -1.35512067778552
H        10.54336432131538   12.95591248650520    0.64176627098343
H         6.52705291407545   11.79978327612421    1.49108189086617
H         6.52048538260671   10.37756112687689   -0.53004553847911
H         7.74644059670435   13.09322993775052    3.09481846180038
H         8.30612611177429   14.42858464057313    2.05609660692910
H        13.06698672276375    9.33263522593463    6.23074285427517
H        11.29667761336266    9.31712190295252    6.39289782704221
H        12.63022012459930    4.06627080353338   -0.17622404199222
H        13.08900742605609    5.01810888517247   -1.61881993186999
H        11.49529496774949    3.69206600221188   -2.85699482682541
H        10.88249817045830    2.84382791738189   -1.40537502011167
H        12.03405820145710    7.04217219592704   -0.38569772490570
H        13.60361272792090    6.42674150459301    0.23540166874879
H         8.71339209190652    4.18491952136394   -1.72537515574534
H         9.03052159067898    2.92520529898646   -2.95599215115501
H         7.53132529723303    4.76378234037672   -4.47767434905900
H         7.56831616554154    5.63181677163805   -2.91471971829437
H         7.39944581282651    7.12135888274066   -4.98453343386668
H         9.07018549236199    6.61697260236559   -5.37995433166333
H         9.82798460122273    8.94783832072489   -4.94272213768886
H         8.11858363883582    9.34916226558683   -4.60387519420890
H         9.81260363926981   10.86039635822276   -3.46969603170212
H        10.31792118255039    9.44888442806874   -2.48571008265884

