27
CSD_code = FECYUK | q = 0 | S = 0 | Stoichiometry = C10H10BrMnN2O3 | MND = 6
Mn        5.73893602219215    4.47256946333005    3.58053254586365
Br        3.66632725682065    4.19268950812132    4.82854049747282
C         7.22688155968292    4.70523790161378    2.65039663223231
O         8.19008677205072    4.79527681446780    2.02508757888228
C         6.56190997457319    3.29893007604075    4.64326554563491
O         7.09657751092182    2.52040223413685    5.29729191503001
C         5.26884979089260    3.12560657779836    2.51309530978141
O         4.98397263755438    2.23102286999168    1.85052669034982
N         4.82314256271319    6.00402211761274    2.51826091602631
C         4.41236206463027    5.92762433868107    1.25030854323770
H         4.54593447147146    4.97527435515424    0.75254004570239
C         3.83634777877266    6.98859622892529    0.57778014152887
H         3.51613970110331    6.86522844318440   -0.44386703816133
C         3.68190103756389    8.19741669849807    1.23914940217249
H         3.24070970247788    9.04931260374938    0.74566256485330
C         4.10486245880104    8.28212584568218    2.55275342181879
H         3.99896565568203    9.19774297665965    3.11365554542331
C         4.66364535095160    7.16621491597526    3.16240193266075
C         5.04754374028030    7.19199369696031    4.61644193354276
H         5.32577502132259    8.20909094464889    4.92339709910088
H         4.15266300824995    6.89845566677064    5.18220276763198
N         6.12586398820637    6.23291488830573    4.89974996690191
H         5.98799727109332    5.89039454833730    5.85589965498706
C         7.43819416764366    6.88229851526633    4.85733251104782
H         7.62559533853846    7.27660843910612    3.85778746429785
H         8.21689796534139    6.15874470292917    5.09560387240385
H         7.49611719046818    7.71010462805265    5.57470253957611

