24
CSD_code = FECYEU | q = 0 | S = 0 | Stoichiometry = C9H8BrMnN2O3 | MND = 6
Mn        6.66315397741827    4.57784134936463    6.29264216875493
Br        8.48512988034241    3.16601221563079    7.06594467828366
N         8.16184146935994    6.20992022174466    6.25346639388445
H         7.75100294182940    7.11772260426593    6.02893912072120
H         8.61130538482273    6.30303330255520    7.16671274559982
N         7.45314353542100    4.39883910972718    4.37521777421247
O         4.48110937471124    6.25558783840609    5.31104198570365
O         5.79901557909730    4.98350681051352    9.06570085766002
O         4.86011496655700    2.26856499259411    6.24374790944593
C         9.17885367813068    5.86161292324949    5.25217590599302
H         9.91659329921217    5.19935354711138    5.72528675071145
H         9.70631286366901    6.74592031004142    4.87206556093590
C         8.57014534481032    5.08675188371573    4.11351427011428
C         9.19398665370162    5.04675768512933    2.87326622920386
H        10.09408213499458    5.61941071609828    2.71201938359297
C         8.65763051310545    4.26224638534045    1.86909055518733
H         9.12774575858155    4.20997747203768    0.89951667500949
C         7.50445636996174    3.54355023924243    2.14477728744924
H         7.04806050344107    2.91130251885347    1.40082386310785
C         6.93815288583501    3.64501824984493    3.40126496572211
H         6.03617165419523    3.09489501626237    3.63825848259375
C         5.36641866548067    5.62130570207178    5.68568157063372
C         6.15421754382086    4.84570521397397    7.98274347771383
C         5.57475502150070    3.16896369222559    6.23790138776523

