32
CSD_code = FECZFE | q = 0 | S = 0 | Stoichiometry = C13H11FeNO6 | MND = 7
C         2.42119355690756   -1.18897732322403    0.97379444281228
C        -1.72096531245910   -5.99871834392353    1.13457352394037
C         1.62443873840037   -8.19169575318030    1.21645475646736
C         0.66061348029372  -10.13504903824355    2.87865803609864
C         2.89433315018354   -9.17693341955533    3.41068568756345
C         0.35561274272790   -5.25903305837879    2.10769658981880
C        -0.60845200812011   -6.21004322007900    2.05602173242417
C        -0.64180201123836   -7.45897615328759    2.82214839125477
C        -0.23388602969815   -7.58242231341022    4.18381632816286
C         1.02423960996188   -7.10612591020333    4.57026420086437
C         1.88679894513678   -6.52132789694174    3.56857407487820
C         2.49944634881590   -4.37221233641116    2.70596947634204
C         3.03965355711335   -2.26255375613949    1.84781956528268
Fe        1.32793670700949   -8.49388008900948    2.95309446289773
H         2.18678593444945   -1.59235611386445   -0.00760831237685
H         3.12082669003420   -0.36640829607086    0.86114200775357
H         1.50577134082789   -0.81726788631878    1.42644392166691
H        -1.68859351678416   -5.02113798737138    0.61498409710311
H         0.26223049525854   -4.36575051254737    1.50864620554293
H        -1.53365941202076   -8.02673848689681    2.56012726206555
H        -0.85180298405434   -8.12602063256696    4.89179184692308
H         1.38137701517777   -7.24031489775186    5.58578618818789
H         2.90316288345672   -6.34819130002786    3.92382686365866
H         3.95798926594947   -2.66246746709636    1.40524665649416
H         3.28065326660011   -1.87866595510953    2.84482987360080
N         1.52241908156795   -5.35978106140853    2.81048880116319
O         3.58248757646918   -4.45366686828076    3.22640494822458
O         2.09078414513526   -3.32725857302633    1.98218476467972
O        -2.61073651653069   -6.78642990906114    0.91880081450200
O         1.81793282305136   -7.96199014700073    0.11569966064419
O         0.29140307058498  -11.21273391783078    2.78628407833965
O         3.90780736579185   -9.65547137578175    3.63494905301927

