74
CSD_code = FEDDAV | q = 1 | S = 0 | Stoichiometry = C37H24F4IrN8(1+) | MND = 6
C         1.77559287530355    2.30631572055003    0.05017326609224
C         0.46692076941652    2.01305236495483   -0.30116143965229
H        -0.36974108834223    2.50397934536103    0.17019567526617
C         0.20232412448856    1.07960957886390   -1.29059866365364
C         1.20458559091620    0.39259104783491   -1.95004198224738
H         0.98190595146555   -0.33727139873419   -2.70997757899071
C         2.51022753903904    0.68293473938086   -1.60741261480251
C         2.80410642928351    1.62807883204849   -0.63167373708180
C         5.31886615344978    1.62867066388127   -0.69051862139515
H         5.46779954178579    0.84176030891692   -1.40031909494589
C         6.24456411855491    2.40937713802834   -0.03130354471984
H         7.30953980176474    2.36299839987625   -0.11854653022230
C         5.49783838890440    3.26852171967269    0.77305750528942
H         5.84672796102014    4.02870714657857    1.44449194204510
C         2.35182878487015    2.20461035906641    2.78026936448891
C         3.28434874032083    1.23202457277639    3.11384374915624
H         4.21238860308229    1.12943517216728    2.57319354456301
C         3.04257128227059    0.35716990682968    4.16186872551141
C         1.88503400009817    0.40754155162059    4.91703197107775
H         1.70984581873736   -0.27931079191028    5.72783429908038
C         0.95291159467836    1.37387435794167    4.59338308695427
C         1.17027243137436    2.26228234069157    3.54535672085190
C        -1.38394153764471    4.67110648415132    2.85081430490000
H        -2.31796099987282    5.18667917957905    2.92631864957793
C        -0.34021551713245    4.93671437967876    1.96685614485262
H        -0.29188377533388    5.68818193750960    1.20308781668775
C         3.99804692539677    5.01542248032461    3.80891455941735
H         4.00877948157928    4.00078696403584    4.18194216224029
C         4.63807444543336    6.03713229853866    4.49063319903593
H         5.15443631873868    5.83149601912817    5.41362945299094
C         4.60878398000353    7.31613425879538    3.95296297969248
H         5.11183107282998    8.13365464001888    4.44480226605933
C         3.92783006917260    7.52966690096394    2.76697682359212
H         3.90016500095628    8.50763272183937    2.31428180122458
C         3.29050381052152    6.45175745277356    2.15747772548649
C         2.58604993369812    6.52584116155994    0.89165276758505
C         1.78631617641769    5.85556816253346   -0.97008364933987
C         1.41758527896492    4.98013950787252   -2.07272312934351
C         2.34608863880814    4.06903677711306   -2.56706630726367
H         3.34416053366169    4.04961161483156   -2.15437843951777
C         2.00013526473001    3.23202507325580   -3.61078653143787
H         2.72671434312092    2.54035601359819   -4.00928561206788
C         0.72600630991162    3.28770565238112   -4.15204633130070
H         0.45560780497215    2.62794355314104   -4.96176395413141
C        -0.19700353962484    4.19898131648206   -3.66539106365981
H        -1.18563855752267    4.24737376760680   -4.09445686099435
C         1.89437979105921    8.92295727218678    0.60772031962615
C         0.14721155256930    5.05309201412050   -2.63435879349042
H        -0.56093432936144    5.77392833568148   -2.25590954857548
C         1.44707859367802    9.24066501548223    1.88505730922070
H         1.23277581461230    8.45745188387782    2.59803974976768
C         1.26178165618722   10.56912699147009    2.22262167894671
H         0.91341961082442   10.82313894330756    3.21148656708833
C         1.50797975905033   11.56671594701920    1.29207309121931
H         1.35993798422226   12.60032047734258    1.56209562520036
C         1.92901393860757   11.23870901297086    0.01332663937465
H         2.10650598981464   12.01434432077125   -0.71462565842871
C         2.12030380033435    9.91437173146486   -0.33763609133408
H         2.43591515579784    9.63658367611023   -1.33081561528795
N         4.10050606498751    2.02374160063006   -0.28098577803558
N         4.20268213926794    3.02441279880454    0.60957370550638
N         0.26873435928786    3.26656564572452    3.16968602854697
N         0.65422568431102    4.08108362340324    2.17466098746323
N         3.34405108077608    5.20978966777389    2.67151949636479
N         2.41263075299774    5.42703413335631    0.15243725891664
N         1.56413572634205    7.15230386505792   -0.93729838627769
N         2.06113485808268    7.57495746441312    0.22687537033182
F         3.50259828311436    0.04693537711568   -2.25590846266742
F        -1.07233420805605    0.83640936469836   -1.62234454422598
F         3.96795387795228   -0.56446600529979    4.45717977166456
F        -0.17457935680616    1.44869900272192    5.32286344663814
Ir        2.46446762983968    3.67029579067367    1.38435274331141
C        -0.96043429701479    3.59646556567106    3.60332429859507
H        -1.46077278671375    3.07386508929424    4.39167397359801

