84
CSD_code = FEDPUC | q = 0 | S = 0 | Stoichiometry = C43H35As2F3Pd | MND = 4
Pd        2.85230628817701    3.77334615950595   11.38662821126578
As        2.70325533076267    1.54995796330066   10.78621107728881
As        2.95736692406789    6.03673698211075   11.91067494042625
C         0.93713714589827    3.69187966389556   12.00806000584116
C        -0.12311598888734    3.46110478951202   11.13073930188997
H         0.07747377628363    3.36116688435545   10.05980170479974
C        -1.42345662571228    3.34501402492728   11.59159736376576
H        -2.23137461422335    3.16764474498072   10.89378653803171
C        -1.68860619545805    3.44089598603011   12.94706224564401
H        -2.70214024469945    3.34016727999186   13.30954885523947
C        -0.65188858964414    3.66424810788161   13.83622137974140
H        -0.85603324722390    3.74342306197964   14.89598566883091
C         0.64523055102992    3.79392169473863   13.36834317906354
H         1.45165393050930    3.99710312602286   14.08083023338372
C         1.08789714134489    0.54170852719371   11.16568829089836
C         0.72912768625037    0.33116807712678   12.49272692428222
H         1.40928626565265    0.63885143703731   13.28220369055614
C        -0.48478622731362   -0.25076024899305   12.80575038910893
H        -0.75783773639804   -0.40725297424147   13.83921319755912
C        -1.35514722408854   -0.62265289613662   11.79430965295062
H        -2.30670968021209   -1.07152350203887   12.03833244975495
C        -1.00905850688428   -0.41071138064237   10.47066986675596
H        -1.69075900442823   -0.69379194903095    9.68139200735573
C         0.20444268307469    0.17592732200203   10.15673845362854
H         0.47345103986392    0.35978497914135    9.12004715214686
C         3.94308491111801    0.79939626837550   12.07441231969439
C         4.67511578390935   -0.36634802624656   11.90023661472040
H         4.57346985634022   -0.93327823503034   10.98171585218556
C         5.55306530453027   -0.78578188673059   12.88602599518197
H         6.12918770827322   -1.68891550391777   12.74371448369954
C         5.70234219685351   -0.04584936847592   14.04674399589796
H         6.39364963491168   -0.37280185134012   14.80965095381918
C         4.97715061423856    1.12119550199335   14.22579281346235
H         5.10483382526037    1.70590357389814   15.12544558562897
C         4.10228266428644    1.54435823282800   13.24202724052923
H         3.53938237641148    2.48352246379855   13.37344249842123
C         3.19667350738083    0.90775584398822    9.02466181257661
C         3.58552280699172    1.84070844479134    8.07063203338768
H         3.62240618647516    2.89457505966248    8.34453783771150
C         3.93552580564278    1.43208661747440    6.79534822733436
H         4.24336662754494    2.15992438619422    6.05881534017077
C         3.89099435450036    0.08770107049888    6.46632573702806
H         4.16679428458614   -0.23428053246739    5.47292566592041
C         3.48549809765941   -0.84681263563854    7.40645920807417
H         3.44251951119107   -1.89408584662533    7.14331800689461
C         3.13296121162603   -0.43909548288014    8.68066887752820
H         2.79087162986328   -1.16201147054706    9.41631398760012
C         1.60505792049803    6.98428503037647   12.94498308276117
C         1.88142788424655    7.74357788194753   14.07431602323773
H         2.90638209314828    7.84845080291769   14.41564919477503
C         0.85391582126276    8.37013173019704   14.76117675224946
H         1.07667492201422    8.95929391141932   15.63933867223514
C        -0.45385137550291    8.24000812193105   14.32752501024043
H        -1.25327885874263    8.72386952488504   14.86922178345856
C        -0.73605174706040    7.48953494884192   13.19708988650944
H        -1.75521764721203    7.38641186496578   12.85430944976292
C         0.28794336973976    6.86638601183523   12.51061964245855
H         0.07326111391847    6.27279549314631   11.62639654036074
C         4.59405051112035    6.87773748769644   12.52541527837492
C         5.03241211680194    6.51863056243756   13.79828461787297
H         4.44057588056177    5.80928381192206   14.37624436489377
C         6.21259889539394    7.03006279524926   14.30373559677908
H         6.54917736898113    6.74640338685193   15.29065263814394
C         6.97102494803730    7.89729256589602   13.53333921658285
H         7.89672851428417    8.29495112777813   13.92298781281372
C         6.55378742092289    8.23804546473649   12.25822246231901
H         7.15767202893613    8.89704354879910   11.65095768391308
C         5.37010774925061    7.72783048121273   11.75081677705854
H         5.05724361076855    7.97090413321549   10.74173226701458
C         2.56966196411159    6.81373940105158   10.17896314323695
C         2.30337095520471    5.95246899886041    9.11952249359982
H         2.33860516959253    4.86290856462783    9.28478411948668
C         1.98861624544475    6.45732029137281    7.86967893139819
H         1.78543682591618    5.78505000960175    7.04807650956045
C         1.93256680757490    7.82721853069006    7.67401877586612
H         1.69187671815320    8.22332873480122    6.69825504454734
C         2.17623049786360    8.69209993322957    8.72935092921998
H         2.12024046132376    9.76043861245996    8.57611116091191
C         2.48838522959373    8.18819140024822    9.97929226972019
H         2.66499762000677    8.85741073500180   10.81730760519083
C         4.77176922320316    3.85233997257339   10.90335134833925
F         5.40805427488660    2.78274879696475   10.31285933685341
F         5.13539882416459    4.93796986822182   10.13279777491852
F         5.45663286346416    4.03301097853594   12.08643793585306

