81
CSD_code = FEDXIX | q = 0 | S = 0 | Stoichiometry = C38H32F6N2PtSi2 | MND = 4
Pt        4.32580278252162   18.47098036349682    8.27767442639349
Si        4.08008539543294   25.54445241308936    4.36436520367484
Si        5.11361830083880   10.49268959070854    8.88793536567247
F         3.14914500517058   11.94128344461590   14.81074923290253
F         5.16508548675408   12.36455736715406   15.42143907302507
F         3.52557616835563   13.44141707087399   16.30392445062383
F         3.28615754507800   26.67977391835699   12.98708573056179
F         2.58089098410084   27.27753499441673   11.04509497567413
F         4.68322321349209   27.31871765471141   11.48161158325418
N         4.39099504758777   19.29764061921900    6.43543884362871
N         4.53086781032848   16.79621285503352    7.16312305757836
C         4.30729699925347   20.59067748048011    6.15879621770381
H         4.19703125201677   21.25860938954852    7.00283047421384
C         4.35607250262311   21.09668427533486    4.86005647956285
C         4.49325615283987   20.18680509327864    3.80510405149946
H         4.53153307740991   20.53859029305546    2.78563102751380
C         4.57803163679631   18.84273419219236    4.09720249255202
H         4.68242998720185   18.12843607735528    3.29670284483195
C         4.52828961704489   18.41085980589822    5.42486941727548
C         4.62162950534137   17.01399082154720    5.83249488516690
C         4.80151448666407   15.95001707213078    4.94509810863590
H         4.87178126208590   16.13232767495681    3.88500028247711
C         4.89588555962077   14.66056504228182    5.42283829593590
H         5.03912776624443   13.82747973179734    4.75200395115257
C         4.80443824142396   14.44743133965176    6.80306490672557
C         4.61693599773089   15.55808888881247    7.62612400845769
H         4.53422897712695   15.43318918053287    8.69766013499309
C         4.27010260380576   22.48963864205570    4.65570801394410
C         4.19486976852577   23.68848793588085    4.51360498952398
C         4.13138815488769   26.24485559701534    6.13324903710766
H         5.05414851156152   25.97161790581663    6.63730117092971
H         3.30383060897396   25.86809495035401    6.72760588666405
H         4.06733916390211   27.32922714782284    6.13128730512823
C         2.43315664938798   25.94608975202702    3.49695907346766
H         2.39067196048003   25.50945622581208    2.50349020136886
H         2.29831131989039   27.01858639745471    3.39070150839559
H         1.58785721288120   25.56316525197573    4.06087178377647
C         5.56929114764962   26.13041438447441    3.33122670091668
H         6.50868445813837   25.85172166717082    3.79938057273831
H         5.56670506292089   27.21072898305068    3.21842020537727
H         5.55691932378786   25.69649473131771    2.33571465048568
C         4.90100800323349   13.16985480350057    7.39257081529318
C         4.98647242584594   12.09485233285273    7.94033352084077
C         3.50231523529671    9.52153679935877    8.59564378517785
H         2.63889263367861   10.08037575215706    8.94381391534898
H         3.51553048509778    8.57377754063911    9.12598611903938
H         3.35250622276850    9.30661369302475    7.54168265120389
C         6.62455874064640    9.54633921393394    8.21523865239546
H         7.53563114747599   10.12670956038429    8.32721690980958
H         6.51064535252814    9.31435404025113    7.16036877751198
H         6.76630150563754    8.60819735383865    8.74401388624016
C         5.33457617208968   10.96360739897619   10.71848810600882
H         4.51247855286360   11.58204753644925   11.06733403715016
H         6.25365188077916   11.52187463170035   10.87089131937157
H         5.37533056630582   10.08319347370224   11.35317210400517
C         4.26162675078741   17.52357671039334    9.98427533516093
C         4.23651913116193   16.75450978978037   10.92562856682900
C         4.19597534015742   15.83647945759055   11.99855444875795
C         5.11287655402703   14.78117340997337   12.05258510599181
H         5.86624094259634   14.69262450396192   11.28373867275055
C         5.05876727768848   13.86061740359025   13.07722920884880
H         5.76797353119586   13.04818795611258   13.12330092417189
C         4.08347264665296   13.98128000394836   14.06100131722087
C         3.16519992932952   15.02566200443230   14.02004102928392
H         2.41439640341134   15.10894753199277   14.79138287132904
C         3.22478983882639   15.94916262306715   12.99823402786809
H         2.51946519399911   16.76479439867647   12.95595260657113
C         3.98848523517999   12.95097374428556   15.14254374472150
C         4.15263468739343   20.17236681084795    9.22580965210184
C         4.05488584296434   21.30565709178352    9.65309824880010
C         3.93496854463080   22.61779412909329   10.16567601215917
C         3.59807735370618   22.82361123104561   11.50672611230815
H         3.43571945096676   21.96725458962919   12.14291835795236
C         3.47472978201507   24.10197928188780   12.00996399730852
H         3.21417139684752   24.26027283567021   13.04537628855414
C         3.69047870208244   25.19175649084552   11.17501748564141
C         4.02775320205972   25.00244561930049    9.83836651359807
H         4.19343594478034   25.86131869974072    9.20537624103439
C         4.14765374775459   23.72459583723104    9.33635320228578
H         4.40817946968433   23.57532396371590    8.29822704442675
C         3.56071746857896   26.59577352978769   11.67822776263493

