70
CSD_code = FEDYUI | q = 0 | S = 0 | Stoichiometry = C30H30CoN5O4 | MND = 6
Co        4.84441640330576    7.74466153332553    5.74782329165387
O         8.40601868110422    6.55258945010323    7.03444550351064
O         2.89118152292903   10.78713892823771    7.41861053316266
O         5.53145273074210    8.93297415100814    4.52314304422196
O         6.37890739441194    8.31468035748822    3.56399403121091
N         4.19864647521309    6.75065115281128    4.18807740766240
N         6.42939787031757    6.68526285310035    5.87767666176106
N         5.67305054802691    8.74211125973050    6.98572287565874
N         3.38813100491023    8.98645990823288    6.08579388755807
N         3.82586898984293    6.65458338373194    7.16755378211214
C         3.59860526606732    7.47304647411938    3.23632808927936
C         3.35331059809497    7.00222738427375    1.96191953903063
C         3.75034736056312    5.71451457762119    1.63898145585026
C         4.38270349242220    4.96930266854582    2.61524865604979
C         4.59984124298680    5.51124728052211    3.87901356910756
C         5.36303498775065    4.72750490924815    4.90012737316209
C         6.68698679261859    5.44949918668036    5.18863472919359
C         7.35838542212840    7.11922360728788    6.73228572721163
C         6.90796806981837    8.41110590506332    7.34908378638355
C         7.63173592621641    9.21900291765106    8.21308378374559
C         7.05709283493921   10.40449827164150    8.64862828109205
C         5.77901687265609   10.74408821366203    8.22984385567410
C         5.10533972385324    9.87304802284764    7.38535146471221
C         3.67584533900513    9.96767968240133    6.94856336036999
C         1.98850838877633    8.71361570435993    5.88752803560625
C         1.71384050792247    7.20474941062450    6.07581014165283
C         2.48628771793339    6.68218765998860    7.24431872764894
C         1.81521703820188    6.26565683157071    8.39003884731332
C         2.52407037127402    5.79238787412646    9.47750941585496
C         3.90549123123806    5.73856669266002    9.37937443111707
C         4.50349474085950    6.17958204498024    8.21508662291143
C         7.36859806397037    9.24850422551639    3.12848950289958
C         8.18524622572469    8.47299931643256    2.08717928320390
C         6.67208675720399   10.43030850135835    2.44026918722067
C         8.24203783899458    9.68527667150068    4.30023617810769
C         8.12556204276827   10.94347921919554    4.87930860665045
C         8.94101323407895   11.31842137551848    5.93293415989061
C         9.88661645849727   10.44201846386675    6.43342527275389
C         9.98769955596891    9.17366883092866    5.89015183112122
C         9.16744106309094    8.79901976487116    4.84234167688276
H         3.33065814468513    8.48211903659171    3.50833418454104
H         2.86919574347996    7.63745234525342    1.23759902772246
H         3.58252636232141    5.30765873355312    0.65321136942848
H         4.72395693990707    3.96722708852553    2.40500512067410
H         5.56472829451873    3.72294293879610    4.52708585308440
H         4.79248034046292    4.65221590684495    5.82771172982770
H         7.33653469089458    4.82341312554853    5.81364047733482
H         7.20409456601390    5.64391063890400    4.23926054109284
H         8.61842987196489    8.90862057319844    8.51591494602315
H         7.60354224994899   11.05981894662749    9.31056642887884
H         5.28958659698823   11.65269868548001    8.54292452521625
H         1.64530222154629    9.01929974852478    4.89240076416203
H         1.42410168635627    9.29075516973496    6.63212372933870
H         0.64577352787690    7.04615947214541    6.22688335785941
H         2.02247812111513    6.67017357726621    5.17722691472666
H         0.73793638292731    6.31868734586899    8.41835554633689
H         2.01537497169112    5.47210527330798   10.37389902034851
H         4.51367097597923    5.36792794753938   10.18855858522709
H         5.57889247044477    6.13935855144685    8.11675213657417
H         9.04116517721345    9.06606372398728    1.77741805730594
H         7.56236718502853    8.25770894166445    1.22247843505166
H         8.53120177924494    7.52851659457537    2.49432052188928
H         7.39499792905826   11.18936652402828    2.15442683754038
H         5.92886577750197   10.85149080291404    3.11191435104482
H         6.15776817248221   10.07225964674199    1.55069003270500
H         7.39480272296700   11.64793403836383    4.51792740620244
H         8.83480829941188   12.30492841509658    6.36222098478681
H        10.53231679410328   10.74267089535134    7.24637147537438
H        10.69625735945431    8.46297391090391    6.28769591179699
H         9.25238785793638    7.79609673436057    4.45624511774029

