35
CSD_code = FEFCAU | q = 0 | S = 0 | Stoichiometry = C18H12N2O2Pt | MND = 4
Pt       -0.00000015969400    0.00000010706580   -0.00000022417100
O         1.15958204963198    0.99874707811012   -1.33969851147963
N         0.51084511413335   -1.54879436210701   -1.09429663250999
C         1.65075764584350    0.17970047075948   -2.22502296277552
C         2.48283927306341    0.56823482489285   -3.27176951365511
C         2.96489136618780   -0.37400591575020   -4.17720230965671
C         2.65186325738462   -1.71091412202732   -4.08739978926734
C         1.81761507172451   -2.16227835674041   -3.05191042610371
C         1.42498491933057   -3.50256178174974   -2.85076336614731
C         0.60449415619015   -3.81738678431401   -1.79836982732147
C         0.16134716398441   -2.80960758883104   -0.93172659029537
C         1.32282970917181   -1.20887966986687   -2.12713461362806
H         2.74856790925089    1.60883850054864   -3.37121133287083
H         3.60799691291904   -0.03587752187841   -4.97696301950291
H         3.03850051199391   -2.42044224010176   -4.80213345088393
H         1.77677522630007   -4.26508842898462   -3.53030636127559
H         0.29059002341171   -4.83435816445283   -1.62279455289329
H        -0.48655677711095   -3.02990521821476   -0.09426729773796
O        -1.15958052122295   -0.99874735241952    1.33969956208247
N        -0.51084057900824    1.54879356966568    1.09429992489313
C        -1.65075942296720   -0.17970014176562    2.22502162293905
C        -0.16133868337001    2.80960608007502    0.93173278173650
C        -1.32282916636609    1.20887958095667    2.12713499651322
C        -2.48284629889318   -0.56823355765241    3.27176434092988
C        -0.60448550714769    3.81738521396038    1.79837617965313
H         0.48656802881299    3.02990319460287    0.09427553245314
C        -1.81761579177011    2.16227846976179    3.05190993091668
C        -2.96490063171281    0.37400757349272    4.17719554781071
H        -2.74857721630634   -1.60883678755123    3.37120445712653
C        -1.42498111710823    3.50256106757606    2.85076619892141
H        -0.29057745311701    4.83435589103020    1.62280378664336
C        -2.65186922961297    1.71091517216837    4.08739547198857
H        -3.60801042077267    0.03587996053000    4.97695315134732
H        -1.77677163048541    4.26508774074301    3.53030904593650
H        -3.03850773266887    2.42044349846811    4.80212825028414

