60
CSD_code = FEFDUP | q = 0 | S = 0 | Stoichiometry = C24H26CoN5O4 | MND = 6
Co        7.83310107091715    2.12873449389497    2.50004426234145
O         8.52941236571237    4.02653274384733    5.91029021773382
O         5.42440149765178   -1.02323822313396    2.25383543529100
O         9.29000404991246    0.98613068323066    2.78948214294714
O         9.87557160059195    0.98080021118920    4.05560490458142
N         8.91732717328799    2.80231830183651    1.04698702234252
N         8.44756972715027    3.50310064229800    3.68176673764417
N         7.16019091253760    1.42357963478968    4.00713006204537
N         6.87404087373006    0.65888818561238    1.67279666719024
N         6.08578692742400    3.10623839948981    2.03719384538920
C         9.53768617308063    1.87702557385224    0.30484843195090
C        10.57972477769347    2.16660964583075   -0.55375026347532
C        11.01904370208079    3.47767141511909   -0.65420834281181
C        10.38910709922717    4.43355718290355    0.12054159508901
C         9.34297780420655    4.07100447105918    0.96345958479755
C         8.71150351977251    5.09549570831517    1.85443769699375
C         9.03656792144009    4.76699914812506    3.31850916302240
C         8.23924462640633    3.27624563268110    4.98148927192635
C         7.53217400527753    1.96410185836419    5.16261088946843
C         7.26028175268319    1.32270349386478    6.36186318071243
C         6.61354094881245    0.09563074812349    6.32294070706824
C         6.25657957262116   -0.45884762783762    5.10165555997790
C         6.56528138066463    0.23972144737034    3.94374181000871
C         6.23282697272142   -0.14227382421765    2.53231249407704
C         6.40563616456557    0.63390326148564    0.31232542017625
C         6.09570861350050    2.07076669175357   -0.16688447150090
C         5.40009075109813    2.82666965153411    0.91828173286137
C         4.06426972422003    3.18804131695595    0.77511150464185
C         3.41565487042132    3.86411579118354    1.79083264151932
C         4.13782958265045    4.17152447114396    2.93344971435256
C         5.45784516844267    3.77271817663546    3.00904391957145
C        11.12548442285206    1.65438336797375    4.04871124478749
C        12.18905446691841    0.81515441539793    3.33924861808486
C        11.47407451252116    1.91592031712770    5.50885109535741
H         9.18987751077967    0.86377534555944    0.43167040288620
H        11.04088112760298    1.37724250355220   -1.12511597774631
H        11.83407918069393    3.74560190423220   -1.30900726003408
H        10.70662257385144    5.46442262164727    0.08592765212362
H         7.62803133913484    5.08647822794413    1.72502371814031
H         9.08869885976989    6.08922607937410    1.61136826479469
H        10.12787715857469    4.74698146506328    3.45428644980004
H         8.63973696071740    5.54987145001874    3.97834305851949
H         7.56920717059550    1.78462943781078    7.28620270501799
H         6.39940803358297   -0.43240301949495    7.24056706697027
H         5.76373004657455   -1.41481187769023    5.02306484018508
H         5.49192116131250    0.02575353082631    0.28061968253292
H         7.14029342104403    0.18221077683742   -0.36405128049597
H         7.03139721624417    2.57447114416470   -0.41114759968924
H         5.47473751652180    2.03105667893380   -1.06200392894740
H         3.54331488294667    2.93167273758828   -0.13426288502812
H         2.37800656856945    4.14490678641048    1.69476039725145
H         3.68958660636798    4.70561119405456    3.75559454216007
H         6.04195325078339    4.00825178628381    3.88747009812931
H        11.01041729929647    2.60749566736757    3.51093873507248
H        13.12206552508275    1.36841185871462    3.26756528167306
H        11.83997401309885    0.56724664965591    2.33924714269660
H        12.35837518352086   -0.10787967401077    3.88786858872635
H        12.45275930319884    2.38296516286117    5.57794629413121
H        11.48580962151055    0.97500834329756    6.05272036292362
H        10.73324373583437    2.57037581119909    5.96014915204527

