60
CSD_code = FEFFAX | q = 0 | S = 0 | Stoichiometry = C24H26CoN5O4 | MND = 6
Co        4.19024625208090    4.15335710690330   23.89513915389096
O         7.10274276951759    3.13099587838349   26.39191331887362
O         3.36573022183641    2.05792679009041   20.60992291553275
O         5.39020006024629    5.19040900463656   22.92450343858627
O         5.96330472725483    6.26021834588123   23.62394905869360
N         3.33031479068483    5.83567438868290   24.37757622793842
N         5.25436497449398    4.14183484193342   25.48465362338349
N         5.26588399003735    2.79506277436349   23.42532592804924
N         3.27474628523858    3.66372534191920   22.24896937581297
N         2.74848591745214    2.88661993344283   24.68067535184744
C         3.12178394004565    6.69810835890472   23.37739537314470
C         2.83902623988779    8.03543793366909   23.57201766276876
C         2.77256304720003    8.52172130402453   24.86772896941886
C         2.99307407679804    7.63487155950554   25.90418702623654
C         3.27068558625348    6.29853252621333   25.63305834148314
C         3.57483154098706    5.35912520133855   26.75830248746673
C         5.04531659814585    4.93057761300133   26.67092115714184
C         6.29458510823667    3.30481586037948   25.48226218190134
C         6.32330789461094    2.53882086114365   24.19028665068410
C         7.30649915427181    1.65642438928963   23.76842731040474
C         7.17010593695599    1.05985972677146   22.52223015878457
C         6.06712808959958    1.35680956087306   21.73446419101120
C         5.12718288646431    2.25412356894457   22.22177061150153
C         3.83678976123536    2.65445966815677   21.57439612522151
C         1.88788418949149    3.91821385133540   21.95672533028077
C         1.06375893554140    3.92752387999990   23.26461540871849
C         1.51611880014766    2.81708625830431   24.15640152595027
C         0.68509494435135    1.72677952626908   24.39558531206531
C         1.11468004833269    0.69230914982900   25.20450418496377
C         2.37768849785946    0.78657839044531   25.76803618598428
C         3.15090434112735    1.89308473530765   25.47545107517304
C         7.35548689586292    6.06896828584290   23.79942650393347
C         7.96212608333420    7.41767735539409   24.17680185106175
C         7.46847208004009    7.90107601112811   25.53458991159710
H         3.21460882365873    6.29686014024920   22.38030916510190
H         2.68628965968057    8.68155266874722   22.72286446224384
H         2.56499368895445    9.56241763868213   25.06481522883372
H         2.96324922254959    7.97041238569103   26.92960412941839
H         2.94338459785210    4.47144213538592   26.68846522642742
H         3.39290758126109    5.84883867677049   27.71537428238700
H         5.68336083525853    5.82402909945042   26.65844657314430
H         5.32076888620510    4.33251158419674   27.54956735413447
H         8.15093845409766    1.46587553361370   24.41199473275934
H         7.92385265959726    0.37387113106385   22.16469347053886
H         5.91987816309599    0.92265253260782   20.75837619222219
H         1.53001038098302    3.11567847522895   21.29827235228615
H         1.74696578409410    4.87260686262520   21.43704942703045
H         1.21454188673954    4.87914423627105   23.77485444025355
H         0.00492832896454    3.81940018765347   23.02866648164530
H        -0.29292773895794    1.69895269781058   23.94086276845880
H         0.48283813214822   -0.16227323094508   25.39305802690813
H         2.76277795641971    0.01715916562171   26.41754503309928
H         4.13671724814456    1.99146101337869   25.90771621024809
H         7.78716976603307    5.70230219195547   22.85942474700706
H         7.55079799579658    5.32624778315241   24.58489751283341
H         9.04821153117995    7.31168334426528   24.19026816356409
H         7.69391981176959    8.14571951120298   23.40939368245871
H         7.74921615222377    7.19264960321840   26.31125823239388
H         6.38519593235286    7.99638521918854   25.51898458648559
H         7.90188959426343    8.86920943060624   25.77622358861059

