68
CSD_code = FEFGUT | q = 0 | S = 0 | Stoichiometry = C29H31ClN2O3RuS | MND = 9
Ru        0.26052049223284    5.06681450296187    6.85187443437436
S         0.40277200339899    2.76302597640685    4.93696023855924
Cl       -1.91342916877105    4.34291209650860    6.46941359725466
N        -0.44292566241391    6.68570877513542    5.64653779112132
H        -1.45202314127660    6.46033436013600    5.66761776153746
H        -0.31903497168231    7.64464618403157    5.97646944131857
N         0.68344676924780    4.36669251480476    4.96755693610025
O        -0.90923127866773    4.03647177962712    9.91622475209468
O         0.60233764642432    2.30564710007933    6.29362299547967
O        -0.80042152494683    2.38612160763936    4.24542080622223
C         2.34584755621719    5.47294906274781    7.73450495144939
H         3.24151050813563    5.83552283924497    7.24716775379561
C         1.36138982569523    6.38607347847845    8.18538013221125
H         1.53278138536051    7.45473736930086    8.07541000554038
C         0.25558513055583    5.94980579950042    8.96542581431388
H        -0.41177550621675    6.67624811279529    9.41357811111249
C         0.09077465452609    4.56929793450003    9.20272579495157
C         1.10797295684289    3.66179737623925    8.78311753877871
H         0.99159667501752    2.61925409274231    9.03992049131445
C         2.21492235451147    4.11150365290737    8.07514856461847
H         2.98914365724361    3.40462927927309    7.80642714712823
C        -2.13032349977282    4.76260512675327   10.04123618653300
H        -2.39221928912020    5.19426941644904    9.06635252931379
H        -2.01111603848286    5.56426140024969   10.78392138960563
C        -3.20367694597274    3.78192469740138   10.47971104326219
H        -4.15084716111736    4.30176139655560   10.59004137784207
H        -2.93239492847846    3.32160692734514   11.42608462996767
H        -3.31006139959046    3.00590800340082    9.72765241796659
C         0.76467735807102    4.82701988525962    2.59460800645603
C         2.14380667066228    4.98544345073234    2.54143876429328
H         2.67050130607661    5.29152976909037    3.43314161007478
C         2.83462222956217    4.72254137782963    1.37389030110163
H         3.90794292971453    4.84147526986495    1.34479270752258
C         2.15217253458941    4.30222956448999    0.24475111235129
H         2.69189490507973    4.09167196702079   -0.66685845697973
C         0.77773822330129    4.14852576111457    0.29001968754133
H         0.24192427267639    3.81875656909924   -0.58787302558483
C         0.08581281558131    4.40937408683487    1.46017082048212
H        -0.98464007031946    4.27615188408776    1.50151588998725
C         1.78062192678250    2.18086070408196    3.95018565769805
C         3.06434053902632    2.45152905145718    4.38254608858915
H         3.19336894601234    2.94063298866098    5.33531309840100
C         4.14036060801010    2.10474633874181    3.58845434594684
H         5.14814548617390    2.31467366424891    3.91861897852089
C         3.94063534475693    1.49230885036249    2.35377884752223
C         2.64284653588292    1.22188599406949    1.94019561912996
H         2.47445094362127    0.74513079901715    0.98547546889595
C         1.56277143720445    1.56523454455499    2.73546075185797
H         0.54679787395905    1.37321345757436    2.42967673064973
C         5.11640109586282    1.14579032054623    1.49118697068880
H         4.79907292821608    0.62765208419705    0.59041378945694
H         5.81333803178783    0.50890254514528    2.03373797884169
H         5.64998068312616    2.05015140030758    1.20101031775288
C         0.03220454455568    5.07241598239074    3.88966394759566
H        -1.00914712014048    4.72332298865676    3.78640039940176
C         0.02701489896808    6.57455643951633    4.25423348595569
H         1.06168603859994    6.93588305031350    4.21854055606679
C        -0.83359061180809    7.33877855904679    3.28130478980283
C        -0.25402692212005    8.17262407068385    2.33469808193380
H         0.81969784679065    8.29144407931926    2.31544653806506
C        -1.04053610201133    8.84021531762092    1.41206197184304
H        -0.57834277870691    9.48486442968562    0.67945416861087
C        -2.41513338188005    8.68052178321600    1.42792320956911
H        -3.02947381897814    9.20130865244348    0.70886057591377
C        -2.99953172248396    7.84432113816637    2.36466614095236
H        -4.07053935414737    7.70859471214389    2.37518069922263
C        -2.21482687791825    7.17357601715081    3.28516168656101
H        -2.68106129305551    6.50570958805127    3.99614705354473

