124
CSD_code = FEFRUG | q = 0 | S = 0 | Stoichiometry = C36H76NbO2P3Si6 | MND = 6
Nb        3.78133774384865   14.37442492210358   16.79856904471464
P         4.49741354780750   12.16670497239539   15.89926312686442
P         6.04231293180104   15.11042365633125   16.10775744820604
P         3.16462049469997   14.85837623592248   14.42901606612035
Si        1.54092518615186   13.89256368675267   17.59353406223438
Si        0.59804549194325   16.92963854328639   20.47656650807579
Si       -1.01644691061800   17.48771177759303   17.62537433540038
Si        0.50918076816685   10.31926392451534   19.46634062161799
Si       -1.50183638428949   10.45916599891829   16.83255803658303
Si        5.84816959298586   13.56335179717809   13.42590000051032
O         3.32969042929061   17.29690089103923   17.84770112751972
O         4.89199949582356   13.78379511560503   19.67724255922609
C        -0.15964975540377   13.81371197773355   18.42555005986015
C        -0.74426362687703   14.99110104764396   18.91998986143802
C        -1.98850103239672   14.93710183464518   19.53287541844210
H        -2.40918954695816   15.86433402252473   19.87746312953369
C        -2.67186785419686   13.74205346779349   19.69994888616816
C        -2.07655526583743   12.58226151927838   19.21274043748297
H        -2.57596211303144   11.63309833667384   19.31971578447608
C        -0.85185169794460   12.60008641326618   18.56970530746208
C        -0.04746936589439   16.30085868202347   18.77554235483511
H         0.88201057876343   16.11821115465010   18.22597396482282
C         1.33629521821730   18.67389195574085   20.28821854786240
H         2.09137057493163   18.67657683948568   19.51098088519422
H         1.81082033425722   18.99659338237192   21.20967904074283
H         0.58507133878467   19.41241011492277   20.02804333370009
C         1.93856771720622   15.68341349959747   21.00269777750863
H         1.52054994428068   14.68913295282632   21.12905355978495
H         2.41154775601541   15.96178525953560   21.93915942105595
H         2.71474488189767   15.61309760664704   20.24403990695565
C        -0.75283094859057   16.98823985491511   21.82990923818702
H        -1.58998719348490   17.61851236530066   21.54834904372480
H        -0.34367128639142   17.38617133255055   22.75364186629475
H        -1.13774619532491   15.99681751131466   22.04359159632689
C         0.20317689834388   18.74201064035139   16.86441226956970
H         0.25050586139764   19.65515373660097   17.44717770841060
H        -0.08263387481838   19.01631939925376   15.85329830582128
H         1.20625177431576   18.33031566678988   16.82788567721668
C        -1.73381175873877   16.40270450855070   16.22151989178137
H        -0.93939232219001   15.86230067336458   15.71422665950359
H        -2.26485960164224   16.99073020605185   15.47906103034394
H        -2.42364911277426   15.66314965383559   16.61477390485279
C        -2.44309855970105   18.44070326524416   18.46792161847624
H        -3.26628005176311   17.78618336422277   18.73420425130172
H        -2.83872779701063   19.20499478279171   17.80540298848502
H        -2.10533492519880   18.93500934226978   19.37313918103765
C        -4.03168067828783   13.65434114403183   20.37537725256962
C        -3.92554357401279   12.73340717796069   21.59902375163037
H        -3.62695885165659   11.72903721342505   21.31216593370511
H        -4.88473402515906   12.67171618418298   22.10974499466280
H        -3.18735916664680   13.12273708976005   22.29724851196529
C        -5.05016861856724   13.07831244019095   19.38097295459987
H        -5.11578497101968   13.71535167195288   18.50101764559540
H        -6.03551444037987   13.02168921062986   19.83980439043610
H        -4.76656974029364   12.08016957472327   19.05835115374438
C        -4.54582842339402   15.01716481583636   20.84725017214088
H        -3.86549159660673   15.46289069221006   21.56851988937587
H        -5.51491782088035   14.89451736494383   21.32789168663007
H        -4.67020500931692   15.69812683581897   20.00856400896762
C        -0.27537750715739   11.32977556084033   18.02750153516829
H         0.57853853987839   11.61231050494280   17.40058373283939
C         1.99124048986087   11.31231821356485   20.13537889698898
H         2.72089404456514   11.53870557929415   19.36174171347306
H         2.50517330741921   10.77787700749092   20.92858961181912
H         1.66536823101280   12.26403922087541   20.54225570742766
C         1.12941350375074    8.62909053181952   18.82210345119877
H         0.31366981718640    7.99754096046920   18.48709645879272
H         1.65512647808022    8.09351389541625   19.60618755474827
H         1.81707312326017    8.74259160284369   17.99087359680923
C        -0.71601858566911   10.00497585481055   20.89384028448583
H        -1.05393557955475   10.94205014402279   21.32370054857494
H        -0.24384886621503    9.43195048941953   21.68640398461577
H        -1.59113529150231    9.45158632520722   20.56933069477667
C        -2.55600677318483   11.79357874529373   15.96535952078713
H        -3.21326649625816   12.29273545905529   16.66898998531531
H        -3.17233463597302   11.37129354846764   15.17732507004137
H        -1.92545334138210   12.55757970659700   15.52086268540999
C        -0.47930549444220    9.55436191010646   15.49532385021620
H         0.07156486142390   10.25965478618804   14.88091597751933
H        -1.12090920053852    8.98125460920219   14.83384119791329
H         0.23613598602691    8.86768530999323   15.93327683387016
C        -2.65856300442118    9.17796588049143   17.65178839772232
H        -2.09854222107104    8.42533613584562   18.19680121677501
H        -3.25268216151336    8.66430665447944   16.90159316395566
H        -3.35098699479578    9.63980566497541   18.34769279853509
C         5.10769335887591   11.95650432869274   14.15048871764016
H         4.24676482417246   11.65551691660187   13.54842083283831
H         5.82926878853364   11.13583926088649   14.12813816652036
C         3.39043681147661   10.68907368390287   15.98848639325984
H         3.14987880798932   10.51448821644375   17.03733610303237
H         3.87112630843633    9.80498353801291   15.56611849075152
H         2.46117508859156   10.89066600851440   15.45600670402276
C         5.92791985425685   11.44066969730972   16.80549386894203
H         6.80246646284429   12.07904524517916   16.68946810304933
H         6.16146168691219   10.43494774848340   16.45156667074269
H         5.66494092910151   11.40842337628917   17.86391101932065
C         7.01788590901646   14.34888361774981   14.71463335701597
H         7.66172772641448   13.57829503514136   15.14479158313625
H         7.66268075827698   15.11131595510120   14.27144180233635
C         6.14394822293968   16.88085204103951   15.61844189229020
H         5.57642087060529   17.05499930108455   14.70517644743606
H         7.17937954663474   17.19357496500859   15.47027841336962
H         5.69414654124851   17.46693703680971   16.42092772054605
C         7.32498059519850   15.14728634833707   17.42283027835706
H         6.95250075908203   15.79184095972566   18.22060510415974
H         8.27666579645628   15.52839407920202   17.04648595130167
H         7.46287876412361   14.14786600402044   17.83564134358923
C         4.42379663435175   14.78743468409509   13.05824630059111
H         4.83764308493761   15.79306455442959   12.95080716133090
H         3.91194361819665   14.54149462206758   12.12466985105067
C         2.40812890089848   16.49995282706838   14.06306788063129
H         1.47766665999143   16.57293974392252   14.62768322276830
H         2.21062782100624   16.62658847395554   12.99703420549235
H         3.07351905774153   17.28933991596647   14.41187943854024
C         1.84201890932241   13.81492741556324   13.66340106965025
H         2.16264855603717   12.77448497720408   13.63087879982342
H         1.60504999241790   14.15301556394700   12.65363687454631
H         0.95349253833595   13.88172272038351   14.29258269202521
C         6.78989916576428   13.17578091155494   11.82290836495109
H         7.16900048719388   14.08081358091996   11.36407088888165
H         6.14826022814923   12.68333137570565   11.10241276329211
H         7.63362086380543   12.52394588331350   12.01405987261266
C         3.46299539123524   16.19616569464289   17.45601497573617
C         4.43527298657482   13.97939008143494   18.61805001316484

