69
CSD_code = FEFTUF | q = 0 | S = 0 | Stoichiometry = C24H44Cr | MND = 4
Cr       -2.06180048245146    0.51751090396754    3.82918827184834
C        -0.40553361704331    1.59262585885231    4.30658080940631
C         0.25422931437950    2.30466285487457    3.13480927905860
C         1.51940907507400    3.05206373921855    3.57582769411650
C         1.19339984753467    4.05324774284577    4.67857786794927
C         0.53681377263095    3.34665309128546    5.85948357913988
C        -0.72287710209372    2.60360680723147    5.39697773030259
C        -1.58467376379383   -0.55822430786541    2.17290412084437
C        -2.75657609396765   -1.27225261741852    1.51554342687033
C        -2.31571439435720   -2.02923668504067    0.25594277968656
C        -1.21419511846142   -3.02924309347218    0.58940656865889
C        -0.03239275181903   -2.31768309114205    1.23876445129587
C        -0.49418499235537   -1.56772345500194    2.49451491443271
H         0.33285420096559    0.87831221225512    4.71325254194437
H        -0.44144247287981    3.02869938787065    2.69968116610728
H         0.52739677453774    1.58531427008532    2.35758293692468
H         1.96446761488303    3.56939660410896    2.72222125354274
H         2.25092629068656    2.33013657922458    3.94770090326574
H         0.51279458448898    4.81378437581658    4.28758890826116
H         2.10571541997369    4.55833492332644    5.00532711751047
H         0.28088626607700    4.07352443835136    6.63451682269934
H         1.24012101082457    2.63024373890802    6.29144435181660
H        -1.17952399236686    2.10529715464271    6.25810322608549
H        -1.43071316391987    3.34481422199941    5.01242064119500
H        -1.17831452594099    0.15423859990080    1.43265427151136
H        -3.53145293918257   -0.55272897122696    1.23636342928925
H        -3.19475328387214   -1.99075755704686    2.21493351267572
H        -3.16992385517759   -2.54879110968154   -0.18538330557411
H        -1.94277753024218   -1.31311548707236   -0.48077427444677
H        -1.60532630124887   -3.78333080750209    1.27712197893908
H        -0.88883584395564   -3.54271870194537   -0.31866897466420
H         0.74378725376193   -3.04210709546134    1.49810408075387
H         0.39760899858403   -1.60535692095681    0.53008937573230
H        -0.87826764314139   -2.30546824291989    3.20621230865731
H         0.36718294697185   -1.06705113213922    2.94793379398829
C        -3.71807212318827    1.59262729063061    3.35181436500057
C        -2.53893137434092   -0.55821745877249    5.48547818210350
C        -4.37783373048813    2.30466288682207    4.52358821681438
C        -3.40073011672191    2.60360990897162    2.26141903396537
H        -4.45645965671521    0.87831375122570    2.94514150719280
C        -1.36704893110332   -1.27226909156497    6.14284622647105
C        -3.62940972403591   -1.56773262993175    5.16388248761072
H        -2.94529282273878    0.15424080032434    6.22573220054622
C        -5.64301356352054    3.05206526920577    4.08257188898701
H        -3.68216313579329    3.02870051594636    4.95871677359838
H        -4.65100107383631    1.58531381620374    5.30081457733889
C        -4.66042201542000    3.34665571196942    1.79891557333906
H        -2.94408457792830    2.10530016767835    1.40029331056201
H        -2.69289277108211    3.34481634390538    2.64597572677800
C        -1.80788926822528   -2.02924424720385    7.40245933613932
H        -0.59217850440502   -0.55274452047190    6.42203346766361
H        -0.92886044138405   -1.99076878142122    5.44345623337571
C        -4.09123107629098   -2.31769203347373    6.41962200967645
H        -3.24533490181771   -2.30547421508238    4.45217725187248
H        -4.49077626281552   -1.06705684970815    4.71047017722303
C        -5.31700684463494    4.05325027710231    2.97982189525301
H        -6.08807161379610    3.56939748362378    4.93617906626227
H        -6.37453069280562    2.33013790345539    3.71069928101455
H        -4.40449512945407    4.07352754252509    1.02388275236313
H        -5.36372919948438    2.63024625535398    1.36695486153392
C        -2.90941385938557   -3.02923606025729    7.06897098358474
H        -0.95367978652913   -2.54879815968068    7.84379045816553
H        -2.18083238881784   -1.31312039051346    8.13917147763715
H        -4.86741399124818   -3.04211519214378    6.16028101722381
H        -4.52122866545220   -1.60536315258903    7.12829700741950
H        -4.63640152921534    4.81378705055523    3.37081049405116
H        -6.22932288788453    4.55833728228818    2.65307356353828
H        -2.51828361510574   -3.78333235782859    6.38126388642187
H        -3.23477722743780   -3.54270334601633    7.97704714944791

