69
CSD_code = FEFVAN | q = 0 | S = 0 | Stoichiometry = C24H44Ru | MND = 4
Ru       -2.05821985689607    0.52929292586256    3.83057076197863
C        -0.39383201179756    1.60585417218511    4.30674463623968
C         0.17310107270156    2.39703101813230    3.13958839196198
C         1.45310061572585    3.13503931176935    3.55461738382942
C         1.18080505220461    4.05459483336551    4.74032947102888
C         0.60835005772392    3.26219333540453    5.91074165164969
C        -0.66992471898861    2.53200877459957    5.47942385133906
C        -1.58241956140590   -0.54989638787695    2.16755601484365
C        -2.75513427457199   -1.32410095856338    1.58850830844468
C        -2.33837055865824   -2.06628598674574    0.31151834057582
C        -1.16836480442717   -3.00278944555162    0.59376914663772
C         0.00785826413045   -2.22737502188148    1.17753705373588
C        -0.42480833526924   -1.49217065071291    2.45236206620507
H         0.34608511087089    0.83533908150555    4.61331815595440
H        -0.55905712074989    3.13823432677581    2.80195948175470
H         0.40472760762902    1.73392685085169    2.30006878632854
H         1.83644580207945    3.71599115815076    2.71209915899003
H         2.21625756348659    2.40290705989704    3.83113305555913
H         0.46778356449310    4.82795354874475    4.44338642405373
H         2.10498790103511    4.55225882464736    5.04423415895593
H         0.39195940694047    3.93236837512786    6.74635581197516
H         1.34535101895652    2.52996774265863    6.25041100265495
H        -1.06694054901332    1.96923685491075    6.33130428714903
H        -1.40932210353608    3.28472460509061    5.18454958803829
H        -1.25911092387282    0.21730623583863    1.43144918395461
H        -3.58343145719832   -0.64946751390164    1.34988512645072
H        -3.11001618399272   -2.06146094287643    2.31631115535471
H        -3.18523519220972   -2.63450619638852   -0.08113621902803
H        -2.04391709402304   -1.33682236936914   -0.44740068674251
H        -1.48276402464895   -3.77214174979881    1.30361466276894
H        -0.86318660143250   -3.50427463832322   -0.32789084218860
H         0.83223777541138   -2.90914648974649    1.40063752093252
H         0.36409655723586   -1.49913187664657    0.44447962159979
H        -0.73664143166375   -2.24166550551986    3.18814506236887
H         0.43097665510847   -0.94115105806237    2.85771411038739
C        -3.72261315590444    1.60584761570744    3.35437703496379
C        -2.53403865357850   -0.54990879698499    5.49356430098760
C        -4.28955700014635    2.39704563629822    4.52151066629028
C        -3.44654246428136    2.53201994798086    2.18170679942602
H        -4.46254391270128    0.83534450708023    3.04780308031329
C        -1.36130571857523   -1.32409108228324    6.07260446095493
C        -3.69166591747793   -1.49215931798528    5.20873453849958
H        -2.85733897978508    0.21730466778008    6.22966142897949
C        -5.56956696465205    3.13504908331532    4.10650581633541
H        -3.55739420780584    3.13824136927939    4.85914648464172
H        -4.52118704320321    1.73394097342840    5.36102589845685
C        -4.72480649702694    3.26220429770603    1.75035572212786
H        -3.04953284104402    1.96924673305610    1.32982670537287
H        -2.70713762124991    3.28473132948893    2.47657478732278
C        -1.77810025845760   -2.06628864254372    7.34957653740117
H        -0.53300181857670   -0.64946064648696    6.31122253343275
H        -1.00643694085844   -2.06145570557192    5.34480152432173
C        -4.12430722098669   -2.22736913413666    6.48356489400449
H        -3.37983069930795   -2.24165949584557    4.47295806246722
H        -4.54745226705807   -0.94113908677687    4.80337687444709
C        -5.29724410708595    4.05458870095830    2.92078743101090
H        -5.95291401960163    3.71600118357835    4.94902502958449
H        -6.33272104077700    2.40291510335505    3.82998528585170
H        -4.50841587310712    3.93237871964884    0.91473917991331
H        -5.46180944285964    2.52997689911967    1.41069305647041
C        -2.94810384003401   -3.00280258811183    7.06734830295067
H        -0.93123793354367   -2.63451055415135    7.74222893706059
H        -2.07254647045576   -1.33682654737495    8.10849901067995
H        -4.94868589297927   -2.90913750250675    6.26046157875689
H        -4.48054901152561   -1.49912995868338    7.21662419766799
H        -4.58422645662785    4.82795231449184    3.21772953183217
H        -6.22142563316127    4.55224915522212    2.61688158342693
H        -2.63370310189304   -3.77214713335902    6.35749615534975
H        -3.25328421505126   -3.50429428824578    7.98900688295694

