57
CSD_code = FEFWUK | q = 1 | S = 0 | Stoichiometry = C22H26IrN6O2(1+) | MND = 6
Ir       -0.65865230453352    5.87873242289242    7.21034004780554
O        -1.20739897166385    2.98195761545232    7.73405148444474
O        -2.82824339251391    5.14358235139494   11.30303384547376
N         0.34299085959103    8.33158861955534    5.78959962834200
N        -0.29032364492034    7.93101930018132    6.92342733317735
N         1.71986595567956    6.47115782993442    5.28111487134963
N         1.41854015067082    5.68657759214117    6.33827415584376
N        -0.38763053639336    6.71449653720306    4.21604800737031
N        -1.17506844463632    5.95460926669351    5.00755295623937
C        -0.98576467452634    4.07563879127601    7.50200048850374
C        -2.57040188962757    6.15637525581156    7.88570124509957
C        -3.05554673751291    5.93489136478834    9.10001052142840
C        -2.27863596520760    5.54461877249074   10.30040607150169
C        -0.81173065116327    5.74930269424920   10.25488101844450
C        -0.07563641660036    5.93991201638990    9.16931828234439
C         0.75109735058704    7.40329838737732    4.76480115918547
C        -0.51212923857882    9.02602934465485    7.64214466222863
C        -0.01380728214174   10.14603751892713    6.95599154698360
C         0.52512325375265    9.68028308874045    5.78301056923049
C        -1.17088867776337    9.04437384841646    8.96693786618584
C         1.18723182096096   10.42067689378665    4.68264292520865
C         2.47609391124494    4.93083287331908    6.57611171455720
C         3.48869657073849    5.23981321556228    5.64782753168901
C         2.98269023526621    6.22212157414883    4.83316845381308
C         2.53741290740920    3.92542823114886    7.66091518972219
C         3.60201649228193    6.92337760282020    3.68358487168387
C        -2.10807968346776    5.42613058977535    4.23535470120481
C        -1.91805748351456    5.86040929220716    2.90946739560305
C        -0.81587780835991    6.67857429982228    2.92262904905797
C        -3.16835649791078    4.52068165501265    4.73262760489855
C        -0.15978016507355    7.41614949472772    1.81699502469070
H        -3.26519241106035    6.47964375507644    7.11154364957715
H        -4.11313950507795    6.04922121325231    9.31248810618805
H        -0.36421469316588    5.73931566825291   11.24284693939265
H         0.99223964342157    6.10997815935674    9.30116493098133
H         1.22405954646807    7.97429675971356    3.95848084966622
H        -0.05009979037341   11.16251772978590    7.28733118245042
H        -0.47294871892243    8.72024892350255    9.73726430131807
H        -1.49656466976305   10.05450814592739    9.19812020342901
H        -2.02142794303048    8.36880670547273    8.98796605700032
H         2.21919383436788   10.09646675144405    4.54774564761380
H         0.65351465230784   10.29870964697897    3.74008472152089
H         1.19719484036720   11.47854300291326    4.92844574909093
H         4.45945787046329    4.79391790003341    5.59129057557842
H         1.59258079555996    3.87224587287403    8.19541119782673
H         2.76982181587057    2.94685569926224    7.24453561546540
H         3.33046671675411    4.18185834741799    8.36165906921532
H         3.65128263199987    7.99954178208750    3.85013467870879
H         4.61539051492663    6.55595972251532    3.55133410639969
H         3.05216526587833    6.73613743339763    2.76104352949464
H        -2.51677876998072    5.60099026124461    2.06176096581719
H        -3.00810754571053    4.27194073303814    5.77838509307823
H        -4.14311991580274    4.99467119506351    4.62590917706955
H        -3.18028609778652    3.60684082260539    4.14176358505828
H        -0.70711989515911    7.23201131012536    0.89723449446388
H        -0.15835987667348    8.49070319856617    2.00023813077830
H         0.86804266205021    7.08429091919255    1.67024721950660

