64
CSD_code = FEFYUL | q = 0 | S = 0 | Stoichiometry = C28H29Cl2O3PRu | MND = 9
Ru        1.88017355241469    2.42950502892509    0.69419973790544
C         3.17980817589460    0.85138584689991   -0.31949043814899
C         1.99022006041696    0.23492171668052    0.14944860391032
H         1.37850071807777   -0.32877635360448   -0.54809346676185
C         1.60285291910305    0.31953235596852    1.49041490978631
H         0.70303213803977   -0.18348050552965    1.82870365982788
C         2.42389002123700    0.98934344288094    2.44322024756459
C         3.62005764460335    1.56750235909191    1.99638322436197
H         4.30859714661010    1.99815151656400    2.71431584404433
C         3.97135623782112    1.53614253263340    0.62348713108953
H         4.91847316874648    1.96690442285082    0.31953277344729
C         2.01543506739839    1.03950417372435    3.88132101815130
H         1.62935391209081    0.07466055276541    4.20632503186111
H         1.21826415333046    1.77874274059208    3.99965337171245
H         2.84819418969653    1.32979853230931    4.51761338352872
C         3.60753328279415    0.71149171538336   -1.76042398793279
H         2.79330345643466    0.22554348273166   -2.30886459343757
C         3.85125047749005    2.07984288074979   -2.39910879002232
H         4.06510246299240    1.96204680173812   -3.45884396919868
H         4.69116707917352    2.58787956978775   -1.93046848316571
H         2.95983688556661    2.69815222309323   -2.28956881267535
C         4.85481222326923   -0.17348215919935   -1.85268710530522
H         5.12206552607298   -0.32905875418423   -2.89486378359835
H         4.67323508007687   -1.14426010091484   -1.39505149548361
H         5.69845698663995    0.29330810627389   -1.34855516882441
Cl        0.43563546121773    2.61978733480855   -1.15093910459072
Cl        0.17073719673699    3.28937182046316    2.05779203739026
P         2.46646906722277    4.56657923521022    0.25645702205250
O         2.16950472366911    5.76705083228253    1.29497392218354
O         4.07039375888833    4.55726685610352    0.09356431147585
O         2.10450481645130    5.35420359710049   -1.07120170082245
C         2.98434986002126    4.78957332109205    3.33665418690020
H         3.74058021956122    4.26526657318163    2.76976714371713
C         2.89386246835447    4.66733512550801    4.71223753711278
H         3.58365104127675    4.02490088060568    5.24021345800065
C         1.92517042364157    5.36683237068680    5.40953286971843
H         1.85153457144071    5.26426791356420    6.48159002829745
C         1.04890383813562    6.19634073684584    4.72886877046036
H         0.29096579732946    6.74134264778868    5.27035939718155
C         1.12844466963961    6.32251359558697    3.35476562075171
H         0.44423011043698    6.94940971702335    2.80587631105129
C         2.09507449104610    5.60899019636857    2.66059740856570
C         5.18175446260650    6.60622879346570    0.68969728092752
H         4.96970455405866    6.41009608077807    1.72990714062874
C         5.88851451781064    7.73464258684654    0.30992503946307
H         6.23143711827029    8.42630315893316    1.06460797731411
C         6.14861415900180    7.97843345406111   -1.02758863702802
H         6.69656883690492    8.86157898863456   -1.31938776030311
C         5.70037691532363    7.09011170814892   -1.99093521365928
H         5.89700691439393    7.27895991572002   -3.03556972350682
C         4.99300385978008    5.95968238785052   -1.62197226909040
H         4.62691718659328    5.26087219794467   -2.35769724274113
C         4.73961492061838    5.72034574413896   -0.28020828394105
C        -0.28369743145253    5.60976073817007   -0.68847105005428
H        -0.19623697488550    5.18146762382232    0.30057412496726
C        -1.51306238660405    6.01323953248809   -1.17957392389371
H        -2.38923545346974    5.90679977947829   -0.55872120744315
C        -1.62024400456744    6.53910420054373   -2.45568930151818
H        -2.58234389603997    6.85003542136250   -2.83418051520515
C        -0.49181805096237    6.65862324772701   -3.24876232326303
H        -0.56918351402308    7.06356953368688   -4.24673325790766
C         0.74125600890397    6.25224187378497   -2.77096031552263
H         1.63093223822443    6.33076340945573   -3.37622050709964
C         0.83763493864274    5.72700474070569   -1.49084809282576

