55
CSD_code = FEFYEU | q = 0 | S = 0 | Stoichiometry = C24H27MnO2Si | MND = 9
Mn        1.45164533646183    1.88539966600168    3.95673482561247
C         1.08807433310070    2.78077691031934    5.43368325728828
O         0.85826408291134    3.23876448542786    6.46765863226993
C        -0.25332120225234    1.47103285576019    4.20382874400005
O        -1.31389616326784    1.11034615163396    4.48527644225437
C         2.33808942176852    0.41832274224638    5.21860819880202
C         3.36502701019506    1.30481679793117    4.77638639795087
C         3.46306833098749    1.18945737880345    3.35578325128255
C         2.50440414377328    0.22871327870388    2.92237785272452
C         1.79073427752256   -0.22750305442287    4.07329291125347
C         2.06482085804564    0.03113382809972    6.63925999643270
C         4.36240789935552    1.99232407264031    5.65932842778741
C         4.57099532053651    1.73719983155482    2.50858111324357
C         2.51243928437650   -0.45969972960788    1.59268810006414
C         0.88491097949248   -1.42132854143419    4.09524419693880
Si        0.36260054964079    2.26189893233937    1.75972197760311
C         1.56796234234286    2.64084288460821    0.32766287578964
C         2.43401424636255    3.72937125741689    0.37791232042950
C         3.27881660204414    4.02234217270327   -0.67748620871943
C         3.27493304746513    3.22720451040605   -1.81172896220380
C         2.41339629878073    2.14591852867858   -1.88372958459047
C         1.56969987730523    1.86080459636149   -0.82444511990515
C        -0.91909344469709    3.67975976337495    1.72478485157322
C        -1.54582004171453    4.03228533041487    0.53361785155411
C        -2.48381905868219    5.04798225181022    0.49431249086942
C        -2.81118284713178    5.73292028902113    1.65242570647147
C        -2.19138724676176    5.39958214659347    2.84541884709476
C        -1.25337880663765    4.38351616595449    2.87865653685083
H         1.82902003586047    3.28629168993111    3.47648803936030
H        -0.38189122972919    1.07240902568201    1.23778445783237
H         2.44330957281493    4.35234793433411    1.26063019093962
H         3.94428011156131    4.87172845691262   -0.61677804284475
H         3.93709338707601    3.45039569821117   -2.63578384768330
H         2.39924552703216    1.52385186311729   -2.76758035782153
H         0.89691573563722    1.01837663702793   -0.89440798028003
H        -1.28857263017836    3.50244644643019   -0.37172722506746
H        -2.96108330273983    5.30719443881535   -0.43992681024388
H        -3.54443767896675    6.52594631391651    1.62469560541093
H        -2.43974938872241    5.93421726963261    3.75075782605598
H        -0.75589459041387    4.12445749273172    3.81080337717133
H         0.21355815122879   -1.40061100645140    4.95236742268317
H         1.48632304837624   -2.33219329821455    4.15881749713878
H         0.27945009065234   -1.47818731931376    3.19131496227429
H         1.02491074945509   -0.26224512402156    6.77940188049602
H         2.28220421589089    0.84635478067871    7.32763433511610
H         2.69529945527240   -0.81938217538232    6.91171159770507
H         4.74493881279678    2.89920986773520    5.19434743221241
H         5.20574245997172    1.32177142580943    5.84439430837301
H         5.37754422233583    1.00180310353523    2.44873421818770
H         2.86452070903459    0.20030367550285    0.80305800440491
H         3.92630922959843    2.26172285556769    6.61978735276365
H         4.97667368369402    2.65373668592989    2.93170849744189
H         4.22800395237584    1.95177806529755    1.49748091554015
H         1.52275226885950   -0.82163029444984    1.32076697790018
H         3.18442797003161   -1.32108001250069    1.64406343426641

