54
CSD_code = FEFYAQ | q = 0 | S = 0 | Stoichiometry = C22H28MnOPSi | MND = 9
Mn        7.59810457048682    3.62235449198454    4.91790068049107
P         7.74730111682740    2.27365615077053    6.71653562550536
Si        6.49618510841074    3.39006710123117    2.70138855358459
C         5.68471776266410    1.71669087957869    2.24686846201117
C         5.47308858900353    1.35617724498608    0.92054075341942
C         4.87121330460428    0.15332824656589    0.59577147006782
C         4.46749519871949   -0.71354221241928    1.59706550920257
C         4.67227574469447   -0.37071511747560    2.92358959787825
C         5.27644242218675    0.83227766046840    3.23909533711460
C         7.68701336878560    3.71752558454104    1.24368237851512
C         8.77297309774210    2.87951134218393    1.00786569327431
C         9.63300921694209    3.10082798209913   -0.05192855187322
C         9.42404223038830    4.17396280464166   -0.90291094562400
C         8.34597749558454    5.01516318475764   -0.68781495275369
C         7.48904375562565    4.78430738494794    0.37431510185419
C         6.77247753923510    0.72063025675274    6.69447342264333
C         9.38532723699766    1.57629323668033    7.16093145129368
C         7.16306336766267    2.95105111764343    8.31819708212334
C         5.88759768242064    3.51980684392692    5.31915070470215
O         4.78647351467858    3.53995276139287    5.69437363745132
C         8.93712927084939    4.75135168829180    6.16078444728354
C         7.77135130185604    5.50234559089304    5.90855379111157
C         9.57885629237283    4.50611859183345    4.92910163065080
C         8.83473129668590    5.15163072865290    3.92172319105291
C         7.70839636374141    5.77459434944768    4.52271578511759
C         6.79959814441673    6.76608784740134    3.86538044348786
H         8.07486625843015    2.30721961884820    4.29357235802210
H         5.39613139728864    4.37337013565193    2.44209188298227
H         9.29540040441413    0.96305277060790    8.05786123595811
H        10.11709507076458    2.36272847591929    7.33107528988137
H         9.71745203141409    0.96129112399201    6.32487671662930
H         5.78938584356723    2.02757923743449    0.13604939434946
H         4.71645301812006   -0.11070326911351   -0.44092975744069
H         3.99798678756002   -1.65366677103673    1.34466616073410
H         4.36044382726773   -1.04506112290621    3.70912818944808
H         5.45445153951172    1.11307330881522    4.26937660921213
H         8.94021278703701    2.04374082763385    1.67212983695563
H        10.47084613235914    2.43770559020087   -0.21698151075813
H        10.09669844467359    4.35292618294658   -1.72971545538846
H         8.17331198671699    5.85242207797103   -1.34992292927892
H         6.64514981944233    5.44230398259354    0.52770994467213
H        10.55958583641628    4.06549950014168    4.80339946119946
H         9.14432224501146    5.27715720962842    2.89245241731241
H         7.13571120378491    5.94972412859496    6.66275817483937
H         9.36530643016046    4.56448873694112    7.13834265365292
H         6.96677787958736    0.14309076527149    7.59872921913261
H         7.23441115006514    2.17929727596692    9.08496794309786
H         7.74786400701003    3.81639825517946    8.62232865331567
H         6.12160720609945    3.25054618510929    8.20006892206320
H         5.77511729369439    6.66796331161525    4.22302428977263
H         7.14206400274815    7.77904105631744    4.09467274407517
H         6.80715012511204    6.64016368687058    2.78457181202704
H         5.71253727206041    0.96716585804922    6.63688669784432
H         7.05447500605181    0.14592611902136    5.81245874606714

