67
CSD_code = FEFZUM | q = 0 | S = 0 | Stoichiometry = C30H27Cl2N6PRu | MND = 6
Ru        4.24042177446912   10.30688695795362    6.10506522681957
Cl        2.79885434525288    9.01976389477915    7.50943913590255
Cl        5.98473782702433    8.68381989032082    6.31757921974779
P         2.68425579637309   12.01114904799752    5.82200561901433
N         4.83989423152679   11.19257040305407    7.74889463927335
N         4.63790577757432   12.48906883876925    7.85100960678253
N         5.52358380600056   11.16791490932969    4.93246997033529
N         5.68718866363332   10.53976203558355    3.79440934155349
N         3.47636986222624    9.30604486497257    4.59862165712855
N         3.00593693787860    9.99576043449500    3.59302216676460
C         5.20468117351801   10.48405796792749    8.82207561110367
C         5.34382403284615   11.06912884805146   10.06868495921010
C         5.10173929399630   12.43052737751481   10.18354564777707
C         4.75659209854078   13.09679803892521    9.01427024581890
C         6.31549835767251   12.20264498244456    5.23814530552141
C         7.32066648132391   12.62957569978403    4.39257189544650
C         7.50037123641633   11.95454084791614    3.19277324329361
C         6.62740849101804   10.90012550025123    2.95053370343597
C         3.37573995704284    7.97847651994886    4.61536825507485
C         2.75982549295954    7.28421314086017    3.58553137368184
C         2.24985794844876    8.01284530003720    2.52385383583224
C         2.41400728124278    9.39235957176258    2.58434084215834
C         1.81720906735891   12.81186491180930    7.21497212701816
C         1.68752316553534   12.14435096861896    8.42711073605691
C         0.98724314064288   12.72791867663953    9.46832470502840
C         0.40322506020622   13.97232025883822    9.30275941505038
C         0.50024240937905   14.62456732765717    8.08358841166526
C         1.19693861539431   14.04579382190792    7.03946403107126
C         3.45010593946356   13.37785370102006    4.90618820138028
C         3.92349481262387   14.52467881648713    5.53381065091341
C         4.62886963708551   15.47151816475548    4.81145204138214
C         4.88016595976491   15.27741770019068    3.46364293041999
C         4.42781150771621   14.12651107646749    2.83696247310354
C         3.72185274960439   13.17836121904724    3.55295641673640
C         1.17254479259227   11.62185599505269    4.87291444235708
C         0.63742290516024   12.43570046069136    3.88251455730153
C        -0.53614855992905   12.06674512030192    3.24798980160245
C        -1.18487993096617   10.89555095304035    3.60114525327351
C        -0.66598433104797   10.09375096767879    4.60569013000828
C         0.50432675767479   10.45697886573536    5.24403282347280
H         5.38650991149244    9.42833747264311    8.66134694483364
H         5.62690412928171   10.46966159928337   10.91947476607226
H         5.17917294658734   12.95088704676033   11.12422097258438
H         4.55952014139223   14.16013215167338    9.00364984354250
H         6.12050786523259   12.70706373372393    6.17432105620457
H         7.94483540647359   13.46446455564818    4.67141230950917
H         8.26957073626996   12.22697236124966    2.48926301626441
H         6.68070485018606   10.31071868874256    2.04568488934331
H         3.80532969054866    7.46858976055286    5.46868538801183
H         2.68634107651311    6.20857611105304    3.62388559998965
H         1.75213562917862    7.54239761203365    1.69104688481182
H         2.04842570202548   10.04460457297723    1.80294658756158
H         2.12035340361528   11.15947487883097    8.54512383421063
H         0.89360947064817   12.20599284437162   10.40942871164573
H        -0.13948541969976   14.42950290590747   10.11737610483391
H         0.02604335456699   15.58579578094042    7.94553989848145
H         1.25791490291565   14.54867980799835    6.08426472278789
H         3.74299745670471   14.66758949183529    6.58834887181255
H         4.98910042411548   16.36364047258289    5.30358121043479
H         5.43277906347776   16.01747556113376    2.90338447652890
H         4.63319747551199   13.96669008288994    1.78796231784767
H         3.38809399799000   12.26344015077707    3.08306817723017
H         1.13634548277212   13.35158699313822    3.59947232750771
H        -0.94697320539001   12.69873903888906    2.47331958848207
H        -2.09763403662043   10.61104092160731    3.09796772244976
H        -1.17517552101856    9.18488380023106    4.89138714164087
H         0.91845049996569    9.83658752387183    6.03070598584359

