87
CSD_code = FEFZIA | q = 0 | S = 0 | Stoichiometry = C44H36Cl2N2P2Ru | MND = 6
Ru        4.63772704026368    1.89681985482465   11.15654652966574
Cl        6.12088625692398    0.33565661477100   10.08573963815850
Cl        3.28025294232673    3.02842479871020   12.76096346105339
P         5.13194755044118    3.93114564139734   10.15676312982182
P         2.92093262422009    1.30773027745562    9.66422593900304
N         6.10958454850414    1.89230741717989   12.53324256890829
N         4.50153771560808    0.34612449827514   12.55972114255236
C         7.26797193892320    2.37549457640147   12.94498069220197
C         7.94947646868648    1.83464380818921   14.03960072627296
C         7.43085073241842    0.76362538227939   14.72939040622469
C         6.22147498073931    0.19417822079803   14.27903411193784
C         5.55777446280315   -0.92814015995433   14.81551461543308
C         4.39952878209662   -1.35865142290151   14.21389372594871
C         3.90310769946719   -0.70589318478830   13.07931761586383
C         5.61914895367893    0.80073451485284   13.15761115158098
C         6.19484977042703    5.01580486735011   11.18053848512617
C         7.27877647886308    5.70966440067289   10.65073557184254
C         8.04877715316849    6.52521312406834   11.46260213355595
C         7.74631873777235    6.66321799094136   12.80652134590191
C         6.66864880136875    5.97583927483090   13.34143285546073
C         5.90001309202920    5.15387925153347   12.53746715792361
C         6.01416443145849    4.01843010852388    8.56322067311708
C         5.75121442109273    4.96185341997616    7.57575462392397
C         6.50352678469342    4.97326402396289    6.41445064575604
C         7.53119274137900    4.06212784720247    6.23610297001240
C         7.81536450370483    3.13917891219314    7.22951668202324
C         7.06145306730611    3.11718481734290    8.38787562522744
C         3.67896583259040    5.00378704049163    9.89114698472675
C         3.28129471218274    5.98012644612900   10.79710790947617
C         2.11474432825627    6.69349124753002   10.57943277913630
C         1.33761723653881    6.44588283611351    9.46104922876742
C         1.73059315098304    5.47668971378457    8.55237629827523
C         2.88978767891559    4.75724943689692    8.76893116375741
C         2.69896587392005   -0.50677594822341    9.72849509771315
C         3.48197076087556   -1.36196154697096    8.96100936407570
C         3.33085921784660   -2.73281414284737    9.07692105890921
C         2.39794836594263   -3.26397572476534    9.95145805772868
C         1.61649410111913   -2.41774253258540   10.72145186992602
C         1.77157155514480   -1.04668006769068   10.61907502954200
C         1.18304758631388    1.84726203262492    9.83844231263369
C         0.15618668126085    1.12096742557410    9.23132807112232
C        -1.15235654566257    1.55382901638197    9.32371363621621
C        -1.45539909043650    2.71475608159951   10.01943353986667
C        -0.44290252793645    3.43666918246438   10.62467352197912
C         0.87110953360348    3.00799636054961   10.53326948052509
C         3.19567088646515    1.55903951723773    7.86382680979739
C         2.18339498938808    1.92720493233909    6.98037062577773
C         2.46280901970302    2.11863926724480    5.63897658177303
C         3.75031992324328    1.94909862622158    5.15782535917907
C         4.76231421898185    1.58867388094087    6.02995824572302
C         4.48947731452350    1.40012944597109    7.37308106005651
H         7.67687803942782    3.21535372310770   12.40087127835880
H         8.88698479470968    2.27874443881813   14.33531628275966
H         7.93325881969217    0.34506452231388   15.58798185127223
H         5.96921561286835   -1.43236732354126   15.67697473020774
H         3.86315316503702   -2.21309209575134   14.59586665347206
H         3.01132555393875   -1.06067397693234   12.58354552879033
H         7.52767481682864    5.61314135266033    9.60436053827436
H         8.88934982160696    7.05651649889852   11.03996013595412
H         8.34966874077375    7.30220520250050   13.43472788228736
H         6.42736563790737    6.07683708359224   14.38973782377128
H         5.07041546702656    4.60300791521163   12.96141630570174
H         4.96663831554597    5.69152744560347    7.71322715596787
H         6.28871288100217    5.70290347581608    5.64692356976819
H         8.11273956290574    4.07609273092914    5.32561148166164
H         8.62208410011320    2.43272674147644    7.10016039465407
H         7.26495072928012    2.38682744584770    9.15981952119595
H         3.87293846987091    6.18159361194660   11.67651783735671
H         1.81090022126353    7.44597201760904   11.29256901981832
H         0.42752822215785    7.00430505064639    9.29760255792711
H         1.13078664223786    5.27521671457932    7.67663488491930
H         3.19672987861175    3.99798138927877    8.06442126770416
H         4.21371362470260   -0.95639300495990    8.27936845557059
H         3.94585759884968   -3.38956755928728    8.47927072395340
H         2.27904333785434   -4.33445374979400   10.03523037852632
H         0.88766485898866   -2.82652517145838   11.40764608063600
H         1.16433084143874   -0.38429622314615   11.22410191299388
H         0.38428840012448    0.21212379016483    8.69024608308096
H        -1.93965384312752    0.98408271039822    8.85068952171972
H        -2.48063090837247    3.04807290016956   10.09079231328248
H        -0.66996451594475    4.33781862443323   11.17456240478410
H         1.65298906474843    3.56479183112708   11.02480151622095
H         1.17694148296428    2.08867069134370    7.33552660390286
H         1.66742147990861    2.40759055574541    4.96672930634535
H         3.96225199940230    2.10324023081272    4.10988460809088
H         5.77220897207480    1.46068119809220    5.66948770279229
H         5.28765062942513    1.13367780862563    8.05019737499438

