142
CSD_code = FEFZEY | q = 0 | S = 0 | Stoichiometry = C54H73P2S6Si6V | MND = 7
C         8.75885663610981    7.99531277775325    1.92621239494000
C         8.95876451904002    6.98394992964752    1.00557809436225
H         9.30956824575177    6.01079953947945    1.32307877937945
C         8.68798873529115    7.25903022138298   -0.32777980640918
H         8.82958758920132    6.48683256189856   -1.07021319491714
C         8.24195443572363    8.51267158224391   -0.71532540924866
H         8.04415531477622    8.69679703473295   -1.76052052585204
C         8.04757826577112    9.55449564979004    0.19127967235915
C         8.33188311650784    9.26403684624785    1.51861183505291
C         7.12054125399144   11.30636599833754   -2.17292095614838
H         7.99266518772141   11.05592720299869   -2.76781483900299
H         6.78847008399707   12.29110979893985   -2.48300618556850
H         6.33182492717198   10.60395384744256   -2.42187267082880
C         5.93353835664121   11.81923218792562    0.64601667525809
H         5.56009171123150   12.77408797651566    0.28832308614944
H         6.13534000479069   11.92283759805390    1.70760761951502
H         5.13896496958845   11.08779732265285    0.52705888021276
C         8.94367086872410   12.50782447689468    0.04559707866436
H         9.79588132583423   12.31270443189876   -0.59929813842084
H         9.28265126686687   12.40546150422492    1.07379037811897
H         8.64235398100965   13.54072019794204   -0.09966687426354
C         9.90380786940397    6.59221178872943    4.20590622129987
C        11.27454865380139    6.78291335838538    4.01607070944292
C        12.20240269989671    5.80041874211517    4.35135906003137
C        11.68562639196367    4.62668474270175    4.89029852432423
H        12.37231877122621    3.84349985579157    5.17428654706173
C        10.32533786760799    4.42841468402094    5.08346029133487
H         9.97395313917183    3.49922830719716    5.50841952062252
C         9.41322641989879    5.41547326242749    4.74670003684683
H         8.35066241322898    5.28405271963590    4.90182122581447
C        15.02209585101304    4.61170129377354    4.72023773775382
H        16.08707601350549    4.77268865028038    4.59473646299247
H        14.76144566147422    3.71822389497135    4.16261851103023
H        14.84507014837312    4.41385798541782    5.77219073189875
C        14.41691097629993    6.38218208610447    2.25123673262450
H        13.83043161409579    7.19760013919833    1.84032196484777
H        14.18451101779604    5.48689923709674    1.68060990501495
H        15.46482826632539    6.61469366126098    2.08724177873723
C        14.56967837788793    7.64783071790395    5.15476489647456
H        13.98482923571738    8.52546350654491    4.89355271507038
H        15.61689534778263    7.89221944411612    5.00296569809008
H        14.42137166153067    7.46407596284479    6.21526177998185
C         7.37281446961537    7.93831739369259    4.42095588757969
C         7.45833697118312    8.44586871745483    5.72393363473023
C         6.35507111379899    8.46930659340607    6.56778831002946
C         5.16662347166231    7.98766754150858    6.01582463107121
H         4.27969033023950    7.99412023745290    6.63180543184375
C         5.06691685470447    7.51528290688408    4.71691575658052
H         4.11388001930101    7.17017049623705    4.34301475548669
C         6.18195609590127    7.47848780885333    3.89356153147639
H         6.12979922615995    7.10991905722295    2.87803873608753
C         6.30891710821907    7.42672111524586    9.42367585939254
H         7.20834521840006    6.83311557072367    9.28852345189064
H         5.46237150328606    6.80691013471541    9.14336375415179
H         6.21756352142151    7.64959595949786   10.48206112149192
C         4.79528838621551   10.06841293161185    8.66136231661233
H         4.81402300553574   10.54426112274859    9.63644805101059
H         3.89795464215870    9.45984481336870    8.61568687084244
H         4.70416485392197   10.84996659876679    7.91320085310672
C         7.87700745664128   10.06376585874390    8.92961421216686
H         7.92466207981615   11.00539771008478    8.39293129432138
H         8.81361720513402    9.54480561738935    8.75595184819620
H         7.81577270197975   10.29211077627238    9.98964919104394
C        10.15534811684089   12.30753684076322    6.41957746593351
C        11.08282434317110   11.35155983348136    6.84686264264170
C        11.42874476395634   11.22937386572081    8.18878007617724
C        10.83087597452440   12.12409866025615    9.07203398976580
H        11.07344533425121   12.05261655049154   10.12116246435761
C         9.93229403333449   13.09217945121446    8.65378984404860
H         9.49525606323367   13.76964991039411    9.37261155443810
C         9.57279520943509   13.18492899942310    7.31774684393476
H         8.85358310747937   13.91863509379575    6.97986971550524
C        14.34484260783071   10.19042159514161    7.99579323791025
H        14.30612851548569   10.24678051610053    6.91288488670047
H        15.04831630520189    9.40779132412980    8.26352291213517
H        14.74545584531901   11.13194373354681    8.36151577066515
C        12.74307418736363    9.88929094609048   10.63124165961990
H        13.14797683728581   10.83083102435756   10.98685401054025
H        13.40383527790277    9.10210533569875   10.97748112649516
H        11.77937905819598    9.73759446869183   11.10607345308394
C        11.92935694020107    8.13985796985616    8.22190818672836
H        10.95427332558210    7.96111241687876    8.66737333813584
H        12.59032940282469    7.33928930092042    8.54156897346844
H        11.81153471511746    8.06181207001386    7.14516265384816
C        11.37228294047352   13.04426924528275    4.04333459923626
C        12.03728596082155   12.47421127169722    2.95519116011380
C        13.21748694246770   13.03142781407811    2.45989415048881
C        13.68270367433606   14.18535949137155    3.07735237350412
H        14.59590047412541   14.63327450998045    2.71639033669593
C        13.01950872877897   14.77077711262609    4.14608012051243
H        13.41355998858925   15.66732111585482    4.60182297997069
C        11.86384216540456   14.19602322041489    4.64398175734949
H        11.34424633170725   14.62418836758054    5.49091528231832
C        14.72979570332920   10.43121987109157    1.79237852220854
H        13.88560138743279    9.86949552075932    2.18307045907739
H        15.43987193500242   10.55740245971080    2.60530526466282
H        15.20517087889192    9.82294849689700    1.02875744278638
C        13.12478107232128   11.94907363092645   -0.49481677013681
H        13.73705732817786   11.60796811371267   -1.32441955423951
H        12.68270272263258   12.89992495688320   -0.77997934206074
H        12.31799493712707   11.23595576793469   -0.36109381191411
C        15.71777856713576   13.14615724242960    0.66573999686613
H        16.28720864632859   12.65174297315688   -0.11346260240429
H        16.37474779749827   13.26607605016004    1.52051375994220
H        15.45830656215933   14.13424713699656    0.30062510866431
C         8.52994063253600   13.25454391158688    4.15304451780668
C         7.21508989526524   13.04684970937604    4.59304936408396
C         6.14751185947727   13.77509608859626    4.06634462547657
C         6.43003746455517   14.73095009939238    3.09923461335087
H         5.61733755390178   15.30048781160643    2.67675355536311
C         7.72096532695542   14.95761057576082    2.65465134569905
H         7.91425290637525   15.70609747801335    1.90038366743686
C         8.76262677620795   14.20689188516150    3.16112583930756
H         9.76930619384030   14.36001184883643    2.79643805262061
C         3.19146203547426   14.52190815848688    3.57557849786874
H         3.28343842120040   14.33227712847693    2.51120248660580
H         3.38051597161357   15.57655127894317    3.74715955890709
H         2.15974851803286   14.33045446424914    3.85056627200167
C         4.12284749494701   13.85035749593023    6.44116301057127
H         4.29395993032260   14.90869255443640    6.61694343874773
H         4.80918411832198   13.29661187028148    7.07291212494784
H         3.11340270471727   13.62191374895096    6.76910758425943
C         3.90023038073348   11.59305975014093    4.22582487831533
H         2.85648536024728   11.40493889846468    4.45955008243277
H         4.49814757844536   10.89597739835673    4.80329323322248
H         4.05026213471765   11.36030113843439    3.17562674442640
H         7.95938455190719   11.12147596311811    5.68853428780197
P         9.02487826194782    8.08276957530579    3.71684330619933
P         9.90404500414973   12.16811055366284    4.63635253644573
S         8.16639364120634   10.40428603524969    2.84291087373071
S        11.70908116467468    8.32255015129038    3.32205323312983
S         9.08237781959263    9.01979581637755    6.05529353745638
S        11.78158530875057   10.33916095315836    5.60410343962093
S        11.35570488608945   11.04228782308404    2.24203418071754
S         6.86764885442970   11.88510291520571    5.86943926320554
Si        7.50673317936508   11.30865897570746   -0.30633647534516
Si       14.05837604844629    6.13828998405896    4.10993240336841
Si        6.37528814574471    9.03247254652004    8.38732499066756
Si       12.61663055886230    9.84591165122145    8.72886357520908
Si       14.17159474527824   12.11582091049958    1.09267809776326
Si        4.35355299679619   13.40825956314285    4.59854312180537
V        10.24773143666836    9.98495732313532    3.90007565133334

