94
CSD_code = FEGCOL | q = 0 | S = 0 | Stoichiometry = C42H34LaN5O12 | MND = 9
La        3.84111582794820    3.70627932193455    3.10937651507601
O         2.54208107642063    2.74768246792146    1.64881248301588
O        -2.58606204226150    2.97232608046556   -4.89682784667434
H        -3.38000887882706    2.44179650781242   -4.74195912929933
O         5.22952053703338    3.90758378361117    1.25349496111361
O         3.15165565456373    2.00641480627297    4.26848948586806
O         1.31131051188657   -1.93713305619781   11.36841358971285
H         0.64775977701435   -2.62495869703181   11.21908763996588
O        -0.02909265303102   -2.76185151127622    9.22329001808288
O         5.42357120805075    2.17225089268006    2.44533293284179
N         5.44756482182108    5.72823233770759    3.27928124237621
O         1.70766883863707    4.28957823111391    3.79809957060408
C         7.36937165568296    7.74115161246308    3.20096143593174
C         4.25870508265795    6.58110911423789    1.39606250081366
N         3.21386822237422    5.84864613273159    1.80224074692225
N         5.83692460877020    3.51526211403170    4.76848389301024
O        -3.42575373847107    1.48013582541532   -2.86045631935739
O         3.33688828093037    4.61840248434988    5.10150987705210
C         6.46127483695282    4.63626349480360    5.14471137178794
C        -0.76917604077930   -3.22052421730163    8.12043921680515
H        -1.38976151621728   -4.03172309760057    8.49849271268947
H        -0.11438724411022   -3.60253730922629    7.33098689449184
H        -1.41000597568887   -2.43188555057109    7.71425459364716
C         8.38649702717756    8.79963912964962    3.15549252216078
C         5.38121243830591    6.68772689946143    2.35338583405126
C         1.99413283826986   -0.01805917784579    7.74695066974292
C         1.53275300291891   -1.30921790093773   10.18694373692544
C         6.44455403556391    5.74213112459758    4.16433002721351
C         1.65450642001346    0.53852037149821    5.32686927561474
H         0.81786559825199   -0.12667403856884    5.17873895479242
C         1.51954573107472    2.02520545301429    1.84617877792882
O         7.11093354234586    3.40732859810064    2.08666966868441
C         0.52751051812150    1.92582836552696    0.76268480807596
H        -0.34243198168555    1.31640906750953    0.95341319057911
C         2.16544638796519    5.72671704678968    0.99912395989294
H         1.33062381171217    5.15992378398628    1.39583465168586
C        -0.16277951409942    2.66120201337758   -1.53607678197451
C         7.43358991841911    6.72205170576951    4.14675987987971
H         8.26723965661675    6.67457456431380    4.82867039310939
O         1.52852305429977    3.80909775689730    5.85378472350936
C         7.08769143593540    3.66100051967354    7.23784092674088
H         7.55819742745176    3.72793280593007    8.20798425166412
C         2.27334421178367    0.67376456811675    6.51009805722559
H         3.07082714500974    1.40585043483974    6.55838300095656
C        -1.39408237324697    1.99398809730675   -1.58736405827983
H        -1.70223417893178    1.40176301282732   -0.74238304441275
C         0.84477962113030   -1.71334031705236    9.02711932251214
C         0.71026317273904    2.59475042232019   -0.38632784319165
H         1.63064698618127    3.16311268830820   -0.46690281141976
C         8.87036045549323    9.36664900839861    4.33236103737888
H         8.47647285640997    9.03959577408461    5.28338927681434
C         2.07578899617170    1.33640388380574    4.16949632137950
C         5.86354893477980    2.46643695782955    5.57862147050729
H         5.38037368771889    1.57138207052446    5.20323339619296
C         1.07557681214328   -1.07319190588377    7.82877458573358
H         0.55517352862362   -1.38244216559676    6.93806938772863
N         5.94295493747391    3.16089318903119    1.93245182170835
C         2.66980236711754    0.36829101658774    8.90473950039243
H         3.37354258668724    1.18520092701250    8.85606057487012
C         4.28966191130432    7.18333438137749    0.13965315730279
H         5.15569783126924    7.73625607134339   -0.18705889828142
C         2.44089749815608   -0.26568132637468   10.10989292620638
H         2.95646758553767    0.03200614082010   11.00885370018527
C        -1.79492548327063    2.86951423782638   -3.80096951622915
C         7.09200675556630    4.74937657129089    6.38203762012846
H         7.55494315893522    5.67582022101905    6.68314734018913
C         8.88306413884423    9.25046380219055    1.93458689951429
H         8.53388616402454    8.79906945994515    1.01786835759151
C         2.11230587033336    6.29718903733908   -0.26623328188976
H         1.24181329241407    6.16250283003006   -0.88943044623860
C         0.22640962607680    3.42569003268121   -2.63649244289680
H         1.17669564093209    3.93790596678395   -2.61361704844529
C         6.47654329011648    2.48915392475025    6.82445776291799
H         6.46768029674317    1.61299363727224    7.45384613438502
N         2.18028834031053    4.20688651356344    4.93262977730700
C         3.20458375952690    7.02627158027533   -0.70620942240945
H         3.21409356885503    7.46835686006667   -1.69185858910743
C         6.31026402062459    7.72176430760148    2.29619154335332
H         6.20747238515525    8.51770640662277    1.57597577780935
C         9.84532504999602   10.24215190078169    1.89382507225580
H        10.23069601146571   10.57712608863721    0.94234029678465
C         1.25480982382336    1.30961872006216    3.02848751897133
H         0.35334633785536    0.71736739664833    3.07207633955054
C        -0.57787066192327    3.52988492087991   -3.75425684764381
H        -0.28102212845070    4.11821358565112   -4.60766049879836
C        -3.90635595004403    0.67514527329493   -1.81329621394849
H        -4.86790479093631    0.29300241883734   -2.15278635156457
H        -4.04971325560066    1.25587473270806   -0.89687329582078
H        -3.23257219493603   -0.16368182216176   -1.61340938616947
C        -2.20148609266758    2.09146271709522   -2.69998466622972
C         9.82434533760753   10.36605925418680    4.28725222321212
H        10.18615424295817   10.80455308058208    5.20537617775039
C        10.31599665440505   10.80452848988817    3.06884360212350
H        11.06461801694850   11.58166506819871    3.03531681993339

