71
CSD_code = FEGCAY | q = 0 | S = 0 | Stoichiometry = C36H30I2P2Zn | MND = 4
Zn       11.22741726595246    6.68494520246103    7.47524467063972
I        13.45586114111392    7.84413346305511    7.87716445949424
I         8.94651309273091    7.40040679722812    6.62101054386404
P        10.88061495840734    5.41046193231393    9.68241164883161
C        11.58940567102223    6.43735405577844   11.00433189678773
C        11.10208417213748    7.74033262577621   11.09752446553845
H        10.31049148971423    8.06545695881217   10.43106503215255
C        11.62457735186170    8.61147096754892   12.03229539389998
H        11.24795898317431    9.62111617453972   12.09764085126003
C        12.64444883443562    8.19063747632633   12.87181641492394
H        13.06318903359695    8.87462546339650   13.59448136021221
C        13.13413595850563    6.89906141545511   12.77785693599049
H        13.93234943560424    6.57427123303306   13.42892919689281
C        12.61305628987855    6.01926206584346   11.84519927918847
H        13.00422573483931    5.01431319177289   11.76823036286983
C         9.21600523973292    5.02529596639254   10.30696356998241
C         8.85979388028178    5.17531679023662   11.64348464975056
H         9.58574466021782    5.53388611519550   12.36038155875562
C         7.57361217938649    4.86737006634147   12.04752093476756
H         7.29677767162770    4.98597430515524   13.08474243293991
C         6.64100633580863    4.41392363666802   11.12764384815966
H         5.63708866155751    4.18081371981458   11.44975483711532
C         6.99226890741901    4.26828134586582    9.79570176959112
H         6.26724534457294    3.92528158166955    9.07320829588956
C         8.27497244800389    4.57695720413150    9.38451199296428
H         8.54698898147793    4.47356781686530    8.34351186917326
C        11.76882431099654    3.83171944815917    9.83824359286545
C        11.19970574763667    2.69053016120910   10.39166964954099
H        10.20042861574368    2.72875776509558   10.80167546625586
C        11.91447475837465    1.50562859213951   10.40605109775923
H        11.47188977087535    0.61985774301049   10.83816562126366
C        13.18836564791152    1.44876155549556    9.86360427149717
H        13.73588015249920    0.51804950068545    9.86796164139546
C        13.76056783719215    2.58513695555994    9.31375827353168
H        14.75191324072490    2.54543913741042    8.88752502682954
C        13.05317284376710    3.77199254169975    9.29966087175758
H        13.50237346681210    4.66123675385688    8.87767780713581
P        11.61216192582592    4.59471903201525    5.96440470984653
C        10.22791033658221    3.44888742123232    6.22751367603265
C         8.98758887727576    3.70669044076494    5.64707036422927
H         8.87540044884420    4.52226030885406    4.94656243836185
C         7.89488110202786    2.92369684005346    5.97290422003893
H         6.93744523655991    3.13291341236535    5.52006540424279
C         8.02537564721383    1.88834691635525    6.88445112619185
H         7.16961889165202    1.28182425590152    7.14104860103785
C         9.25440759921482    1.63490655611158    7.47227672868352
H         9.36118690010189    0.83246843876983    8.18750918135464
C        10.35037098668195    2.41452506556006    7.15335894827226
H        11.30732013204305    2.21901276247803    7.61671103467360
C        13.08746119979989    3.52387461178265    5.85089768640611
C        13.03532487947501    2.18138795332988    5.49356778528407
H        12.08629500843356    1.70505392443076    5.29231097080781
C        14.20433709371306    1.44874234102662    5.40120304614770
H        14.15917530639697    0.40459869973881    5.12735935872670
C        15.42834180771034    2.04689482875282    5.65364916096796
H        16.33679014963322    1.46707636545282    5.58272587334385
C        15.48580127985203    3.38845014687947    5.99223541241260
H        16.43678751184778    3.86301024820099    6.18312035678855
C        14.31986531069000    4.12489107383626    6.08960539487135
H        14.36988817435833    5.17328121161374    6.34974964772383
C        11.44882987562676    5.05532571979502    4.20694174962510
C        11.09574626613943    4.11621219701503    3.24190855177871
H        10.88333353961699    3.09682010894591    3.53292660725680
C        11.00525756888602    4.49382941435297    1.91654396939188
H        10.72428670144900    3.76535374867936    1.17011988924597
C        11.27139535458821    5.80265556683873    1.54387175580971
H        11.19424700849765    6.09320512781218    0.50687141043401
C        11.63549330025823    6.73599074920806    2.49856621977195
H        11.84431939808984    7.75545243289044    2.21157866513035
C        11.72654791156069    6.36315842426504    3.82770294785485
H        12.01157715373141    7.09765592874941    4.57144551573278

