54
CSD_code = FEGFOM | q = 0 | S = 0 | Stoichiometry = C21H28Cl2N2Ti | MND = 9
Ti        2.35779360481931    6.57685802720613    6.23388076816247
Cl        0.24324516745419    7.22527140531639    6.02386008039077
Cl        1.79322664208817    4.54958139208687    6.88443486885376
N         4.67243231744946    5.44790953961937    4.40712921136565
N         2.47326756169814    6.42763988677200    4.23401889090620
C         3.49045499417809    5.88492687482046    4.80169044564435
C         5.18983986755870    5.53792740551983    3.05529617804168
H         4.38317593395129    5.82180109496354    2.38046875688803
H         5.98183036033133    6.29060536533511    2.99604635539713
H         5.59898455236130    4.57588343764440    2.73902966517709
C         5.59521295052764    5.20104965863537    5.50596698542351
H         6.54363830938420    4.84171504641917    5.10184379223437
H         5.16164438405439    4.42930723765797    6.15247269397835
C         4.54488990399975    7.06787800141032    6.89065483137352
C         3.92287120980201    8.27793748002700    6.44736437765250
C         2.81889116398249    8.54231384532052    7.29711955037008
C         2.74371144819025    7.48756988341674    8.25504926613878
C         3.82451008351896    6.59595074108293    8.02334510047319
C         5.81840896399670    6.48616418349096    6.33637408506817
H         6.31108195102268    7.23167023836988    5.70682018630851
H         6.49826651913903    6.24038481188545    7.15714372220750
C         4.48711145103562    9.18145525607180    5.38729078007787
H         5.43043492153700    9.61590395171666    5.72890324988711
H         4.67973244462102    8.63781331007490    4.45981575728883
H         3.80393297208993    9.99919126695173    5.16890294134580
C         1.96166511804126    9.77343003906213    7.32507295133649
H         2.16900673183315   10.34763146789055    8.23090924113824
H         2.15314478919450   10.41086598710547    6.46375063986059
H         0.90344660908694    9.50941827825386    7.32405094031882
C         1.74867316954546    7.40176172820593    9.37451996651050
H         2.04981387767359    8.04205091288964   10.20812881056815
H         0.76463406732806    7.72952804389907    9.03452303025988
H         1.66526932257812    6.37650996897509    9.73590696589364
C         4.22252010842856    5.45514918047789    8.91422180473313
H         4.07365446110963    5.73038801449499    9.95848527567704
H         3.62942922903324    4.56170459333799    8.70990284022684
H         5.27335906802632    5.20835909568319    8.77082910032671
C         1.92134756518507    6.40401349020247    2.95557360084241
C         1.65040956707718    5.16864758835566    2.34186792744187
C         1.06383945392200    5.16711467141518    1.08623548600961
H         0.85552585118617    4.22263783615704    0.60442769546556
C         0.72797843787165    6.35186964872300    0.45452390521917
H         0.27206957680766    6.33117539781611   -0.52388973568312
C         0.94855492175662    7.56048932720449    1.09133626026896
H         0.65417344907918    8.48333883662370    0.61275297834360
C         1.53379919587231    7.60571538228047    2.34651399177312
C         1.94404603778122    3.88702946121740    3.06360617338436
H         1.63689155663706    3.96615889284495    4.11130342748671
H         1.40584412121709    3.06311881707285    2.60148146091879
H         3.00868767025428    3.65014905216979    3.04567681132245
C         1.75845690180642    8.90423721998578    3.06001897650749
H         1.54760076013859    8.78071240815983    4.12690032535766
H         2.79400215918731    9.22868311655859    2.94453720051864
H         1.11126654355364    9.67760220113195    2.65380940732276

