97
CSD_code = FEGQAL | q = 0 | S = 0 | Stoichiometry = C50H40Cl2P4Ru | MND = 6
Ru        2.09770376429002    3.11530676417923    5.47561769791134
Cl        2.23573722933658    0.98741502712657    4.36722023668588
P         0.26359572989548    3.40778800980352    4.12438671510290
P         0.33222742594105    2.14968175208691    6.54518721667746
C        -0.80476814624977    4.86529451813312    4.07892772978016
C        -1.26995702106198    5.12207520139133    2.77699863641726
C        -0.81482786732606    4.14001851768034    1.80065165135073
C        -0.00992024332609    3.13095993418552    2.36004020056892
C        -0.75623525093646    2.12723617593113    5.03479599431673
H        -0.61260730930538    1.16191780295303    4.53259198777269
H        -1.81954103054453    2.35389630261359    5.14368966150479
C        -1.11761198458467    5.70528736505560    5.13270460030177
H        -0.71597438930795    5.51593710906113    6.11810929218998
C        -1.92985323522101    6.80243571102894    4.89291404805001
H        -2.18447452658969    7.46680392917699    5.70525624047457
C        -2.40541252254964    7.05743680542169    3.61534407287221
H        -3.03386237608903    7.91907008931917    3.44119373516230
C        -2.07774461358075    6.22772195289534    2.55509022933590
H        -2.44721209262933    6.44438489665623    1.56335819399063
C         0.52044298121433    2.11881656202146    1.57898784724885
H         1.15196651515032    1.36562680719019    2.02860670364194
C         0.23344408928512    2.10272000653389    0.22304581718476
H         0.63636248821112    1.31814181661824   -0.40043549892729
C        -0.56316638264192    3.08981040178833   -0.33800239820594
H        -0.77568448553243    3.06768987785616   -1.39723568055106
C        -1.08809921032137    4.10813623365291    0.44094322152856
H        -1.70346399912061    4.87259646516721   -0.01043112158517
C        -0.55611029446300    3.02794703120726    7.86002996577267
C        -1.82356581784037    3.58648400244790    7.77543161170042
H        -2.41469112180627    3.48925100278048    6.87583030781337
C        -2.33294517627659    4.29141092330511    8.85303260138047
H        -3.31864311936943    4.72934665968189    8.78570494127979
C        -1.58462512344543    4.44570509857925   10.00721380675602
H        -1.98719758523599    5.00495321145800   10.83901061880816
C        -0.31540568238728    3.89320994752789   10.09226594599335
H         0.27475321876740    4.02086376244708   10.98782139593863
C         0.19635193293304    3.18903421608598    9.02211687996377
H         1.19401961720091    2.76492589120690    9.06091479752664
C         0.35567043555797    0.45700638265218    7.19313206458333
C        -0.81436280411606   -0.28124591225279    7.32900333139241
H        -1.76091375693872    0.15383810212446    7.03606636899752
C        -0.75324780651475   -1.56555983338166    7.83559595174543
H        -1.65754373124414   -2.14803495807221    7.93847030525832
C         0.46657629722777   -2.10922362906471    8.20956668134648
H         0.50754065885630   -3.11580083844766    8.59957253767723
C         1.63100371689877   -1.36993349003346    8.08165730514116
H         2.58151911062316   -1.79517203932246    8.36926035914809
C         1.57507328540024   -0.08537706709515    7.57429177253374
H         2.47889561458817    0.50326602892719    7.45089221443177
Cl        1.95977797329100    5.24325920133948    6.58381970922694
P         3.93154341461277    2.82299974361731    6.82696490564849
P         3.86326008519077    4.08113728552122    4.40625468406024
C         5.00000452968695    1.36561762878775    6.87226102083055
C         5.46499409711603    1.10855224523746    8.17420038572480
C         5.00952768408307    2.09031015441327    9.15071547060173
C         4.20461124599331    3.09941269276641    8.59140993937212
C         4.95147318369795    4.10361964283707    5.91681376007829
H         4.80764021452586    5.06890818168013    6.41901333452543
H         6.01481183064458    3.87701041578982    5.80818996997046
C         5.31325386472757    0.52612657044797    5.81821519490407
H         4.91173479406140    0.71577125860946    4.83281358011817
C         6.12575745763116   -0.57087465196205    6.05774189891282
H         6.38077214341399   -1.23483313251655    5.24518715539091
C         6.60109259841036   -0.82621455680155    7.33533052964326
H         7.22975939355885   -1.68772954020179    7.50926546275947
C         6.27298609593033    0.00300028761995    8.39585037853400
H         6.64230295206486   -0.21396692057412    9.38757068606645
C         3.67394155522549    4.11132491575018    9.37254746022753
H         3.04242425591394    4.86451298053077    8.92292053289498
C         3.96073377871719    4.12723787713548   10.72853445964925
H         3.55763518081000    4.91166843515389   11.35208414900670
C         4.75737747827035    3.14013429929884   11.28951207093809
H         4.96971797698884    3.16209911485759   12.34878548286430
C         5.28253597101045    2.12198326032122   10.51048324467379
H         5.89786763833666    1.35749948599789   10.96186041899403
C         4.75170294005443    3.20281393455486    3.09151909855591
C         6.01963972057162    2.64533651108771    3.17565486629698
H         6.61112606937618    2.74332728762511    4.07493435288296
C         6.52905861442215    1.94053481701567    2.09800035155464
H         7.51512501417920    1.50340886555331    2.16490298802272
C         5.78026459716695    1.78528832955743    0.94423356734262
H         6.18297341074384    1.22626420834903    0.11236199996060
C         4.51054813698507    2.33670053074713    0.85966620584744
H         3.92004503973005    2.20839438134584   -0.03557265774325
C         3.99878378053169    3.04077346528741    1.92987102177878
H         3.00068374214364    3.46393047127570    1.89156840163534
C         3.83992551650307    5.77385338582592    3.75839131316423
C         5.00970062106936    6.51264661901742    3.62324372741998
H         5.95633035692281    6.07802778368077    3.91661792312408
C         4.94821259032562    7.79703821574981    3.11687216111989
H         5.85226910429011    8.38000891688335    3.01468009022706
C         3.72832536397167    8.34023691310355    2.74243751223817
H         3.68708571605396    9.34692695340726    2.35273846190887
C         2.56417573793460    7.60038617660577    2.86958611146370
H         1.61359219665533    8.02518569788553    2.58154706722438
C         2.62047737308610    6.31575896024052    3.37670484866261
H         1.71690155855042    5.72659017125739    3.49945590571394

