110
CSD_code = FEGQEN | q = 0 | S = 0 | Stoichiometry = C57H45ClN6Zr | MND = 7
Zr        4.00995721102612    2.23186728485504    1.63506962061890
Cl        3.87107107510837    4.70789272201381    1.87234035698132
N         2.72242894475163    0.45968514889849    1.24519601485141
H         3.13469377024698   -0.32248775199441    0.73141058677105
N         2.08363179920684    2.90419109142437    0.73400449929210
H         2.09728218164092    3.56646377229395   -0.04820952270060
N         3.76443513504889    2.16499154081657    3.76939511572224
H         2.79711128809091    2.42410820176027    4.00058291354959
N         6.02098458685110    2.89384848266736    2.31118155647920
H         6.35032955157120    3.64568976613624    1.69647611412694
N         4.89474746171525    2.68859545650158   -0.30308570019004
H         4.63559690499727    3.68153687032285   -0.38838650689670
N         5.31927560264790    0.44095519887513    1.58794450436735
H         5.77737792116558    0.33028244138689    2.49686463903773
C         1.91687522261425    0.05334917902133    2.19575059889894
C         1.03240012651200    3.09767630476722    1.47988456182652
C         4.26324192502631    1.34045374735302    4.66024022702715
C         6.97918884171009    2.41846987549334    3.04996433876840
C         4.29220195847795    1.95135689745971   -1.21578591909188
C         5.98893666479899   -0.15900945165546    0.64501114149762
C         3.02907841193979   -2.11415664561760    2.63048435445499
H         3.97259649255595   -1.59484292375416    2.51274153566836
C         3.00349732509124   -3.46463079913988    2.92472053837763
H         3.92958627366182   -4.01012666260633    3.03375101506545
C         1.79090159641925   -4.11692019913456    3.07937443504104
H         1.77021647198946   -5.17225175354677    3.30739396769294
C         0.60589540147780   -3.41436516181129    2.93513380949779
H        -0.33978814086429   -3.92450097713347    3.04435887771806
C         0.62764120682476   -2.06014030005213    2.65315196470700
H        -0.29410712316704   -1.51137371331065    2.53275933994738
C         1.84104555638977   -1.39540086390227    2.50663000706993
C         1.11257257380310    0.94454302171297    2.94518860856832
C         0.42448430804125    0.60370185694437    4.13106181228271
H         0.49197110186872   -0.34155270988461    4.63668473747540
C        -0.31514904805306    1.69287214696120    4.55825099113791
H        -0.91551292807526    1.73334644343863    5.44857514016348
C        -0.15968568634601    2.72230085725289    3.63394181623376
H        -0.61734596939797    3.69335772642318    3.69263268747807
C         0.72965703573953    2.31106670610325    2.62729282093072
C        -1.28476094720714    3.93339805802576    1.03970337735670
H        -1.66384733423972    2.95522100365232    1.29631138004080
C        -2.14720336890345    4.93428994716162    0.63148481213590
H        -3.20813533639301    4.73885429654815    0.57405390904089
C        -1.65433818366890    6.18605649590466    0.30031028982316
H        -2.33139745619716    6.96772278225247   -0.01184024201760
C        -0.29362858262274    6.43484817309737    0.37490912227296
H         0.09198231669337    7.41277590217332    0.12766722515210
C         0.57681124514469    5.43436362540456    0.76704878610175
H         1.63645845267549    5.63305950281190    0.85677425588510
C         0.08443166454775    4.17634451125356    1.10991415765345
C         3.04965118097890   -0.53696944040605    5.79776214813404
H         3.52153902404883   -1.23218708740188    5.11904352934982
C         2.14699565592651   -0.99568199235144    6.73988222401043
H         1.92932408435213   -2.05237483458642    6.80045918379571
C         1.52090580667870   -0.10557816400900    7.59634824163114
H         0.81986737591812   -0.46649408381376    8.33418330508584
C         1.79034484764892    1.24871759047666    7.49809858232160
H         1.30004686909017    1.94730851881398    8.15948751787466
C         2.68467608592771    1.71253211681620    6.55086663360105
H         2.89740928975222    2.76967496085067    6.47490168956960
C         3.33347895116001    0.82187861827312    5.70250018357281
C         5.61760043934010    0.93944634591229    4.74117952048694
C         6.07729864992952    0.00031213880702    5.69571181488582
H         5.45927718516470   -0.51690444532363    6.40543987368459
C         7.44855324803151   -0.13851921888575    5.58869630046409
H         8.06272817623826   -0.79633070401587    6.17599832158762
C         7.90173954225660    0.73325053322830    4.60468008124769
H         8.92411301465093    0.84133435364853    4.29107024288347
C         6.81064041480509    1.42576756609524    4.05474266422864
C         9.15892482106232    3.42818140375547    3.80056165999000
H         8.77327217363718    3.48401001016724    4.80753580209780
C        10.42858317990090    3.89189405830765    3.50666060262045
H        11.04145310776279    4.31187541275443    4.29053755950087
C        10.91623049406327    3.81539934437024    2.21227971841235
H        11.91136884670618    4.17019714260312    1.98828458271042
C        10.12580364500129    3.28625091189127    1.20497554627628
H        10.50492925524104    3.22444572549436    0.19556061394506
C         8.84824142511549    2.84055649977772    1.48916996875535
H         8.22297889519549    2.42474116810145    0.70857386419949
C         8.36132864348355    2.89705921214035    2.79295650264688
C         3.52783864432096    3.82564511055504   -2.69408897774542
H         4.50633784304021    4.27801745668904   -2.60562003029219
C         2.53460439760231    4.46327873718753   -3.41622827900070
H         2.73670805809602    5.41723722485573   -3.87994752809307
C         1.28195285830667    3.88507155229319   -3.53481418818528
H         0.50378942394831    4.39093200949905   -4.08606372942783
C         1.02877589340626    2.65753765502564   -2.94315145808759
H         0.05097791887182    2.20819152741458   -3.03114703423574
C         2.02201019969440    2.00799553745092   -2.23346112240145
H         1.82589405110364    1.06042156752257   -1.75286974641174
C         3.28229126705159    2.59103205549666   -2.09871345253380
C         4.61610123825034    0.59560558617233   -1.43697897983050
C         4.34210320161864   -0.07813125875912   -2.65199223955228
H         3.73871341799614    0.31267476231812   -3.45103189792361
C         5.04159509576959   -1.27019090599983   -2.67755985074389
H         5.02931191205793   -1.99226744365204   -3.47345798601539
C         5.77861424191561   -1.37627034075823   -1.49844101029136
H         6.39066197587478   -2.21393011685513   -1.21440507730413
C         5.53137385026445   -0.25150919786413   -0.69885450477821
C         8.36398568200621   -0.69909257298332    0.15348770068922
H         8.25563219368614   -0.15514891960583   -0.77296706260784
C         9.58655352208210   -1.23348272179882    0.51446923232593
H        10.43973072289964   -1.10938232691371   -0.13590831601056
C         9.71930547555071   -1.92516720824655    1.70735902208468
H        10.67492183853024   -2.34240561170464    1.98787706728054
C         8.62330781212372   -2.08191856236700    2.53910963856498
H         8.71963693599724   -2.62339385861798    3.46802838508102
C         7.40286306741785   -1.53642397420793    2.18869566585713
H         6.55393200368056   -1.67106735767557    2.84509912243008
C         7.25937542377763   -0.84092919306803    0.99041348122488

