68
CSD_code = FEGQOA | q = 0 | S = 0 | Stoichiometry = C32H29MoO3PS2 | MND = 6
Mo        0.63943983220874   10.98623916498415   12.04896819078327
S        -0.89428075497781   10.93980374026557   10.06368922357334
P         1.58539090235806    9.06357219116738   11.03801031248885
S        -1.04770660153211    9.41233149329618   13.08957534173312
O        -0.53841660244243   13.52443887137360   13.32677218585473
C         2.94967029587000    8.08806123594820    8.79260216345287
H         3.08228256385002    7.18104036292741    9.36832853901883
O         2.61777849058239   12.99885142282189   10.85217909660597
C         5.35791866598339    7.43075015045041   13.06440053785709
H         6.25989923443553    7.09231904154515   13.55275622490606
C         3.47531037448761    8.17749210133512    7.51817520550973
H         4.00703648042117    7.33703899699485    7.09554644372620
C         2.65654659551872   10.42465006148564    7.33329115184547
H         2.54664682071209   11.33884292129573    6.76897919943632
C         2.12855130329283   10.33802156870329    8.61005337959858
H         1.60657375764783   11.18345619867307    9.04135236817491
C         5.21628766249084    8.76453612790115   12.71275610152047
H         6.00701282948971    9.46853315285771   12.92443686295771
C         1.86699349156665   12.22833898227861   11.24045721320360
C        -0.77744659831356    6.16808760771684   15.46466132003560
H        -1.45844096055333    5.44551237782078   15.88961748709556
C         0.95916146743833    8.04629492160673   14.40118936497065
H         1.62606971950011    8.79057937382918   13.99016152515104
C        -1.73983693982200    6.87773200386065    9.86528828103320
H        -2.80324913509227    7.07023357061024    9.73257139177157
H        -1.62673922777217    5.99240889402464   10.48844857325856
H        -1.30458309138946    6.66893139691237    8.88987723049463
C         1.44463494218016    7.03534697998224   15.21230213343507
H         2.50153841603988    6.99136734450074   15.42725200494643
C        -2.60365215820920   11.36233562966052   10.37175600620417
C         3.32839666116044    9.34542062582689    6.78561162731617
H         3.74407408846542    9.41360555669974    5.79107537393018
C        -0.39167558270934    8.10333859093300   14.10808379491711
C         4.34156864051377    6.53217535163644   12.79060328376232
H         4.45151077187617    5.49170154686853   13.06218465370332
C        -1.09305384066252    9.21915312873488    9.47752209458664
H        -2.05383436308154    9.19900867484784    8.96154887179340
H        -0.29638306111104    9.07798486219319    8.74331585920919
C         0.39867870013991    7.65847497725043   10.85252996700337
H         0.76902145222874    6.98755319900333   10.06901504362666
H         0.38618387211331    7.10909758089101   11.80107604463639
C         3.17832430404511    6.95654550721920   12.17033445172585
H         2.39662288856145    6.23706996704682   11.97040097802220
C        -3.46888504658084   11.40580510490223    9.28670398254519
H        -3.10325641289917   11.17665506025446    8.29596227112430
C         3.02759951211975    8.29382378936303   11.82544250941560
C        -1.04127108243782    8.08714589338876   10.51542816193915
C        -1.26920852926941    7.17974597993204   14.66067765050717
H        -2.33082823315592    7.25642179719176   14.47298952900477
C        -4.37438799577741   12.06255691766327   11.82171711371633
H        -4.72028139016304   12.32624107154638   12.80967135470592
C        -4.79214189487402   11.75686380274488    9.47947473681907
H        -5.46588659924686   11.78783352925009    8.63604950907051
C         2.26516280324020    9.16799476398312    9.34606375419506
C         4.05666493542730    9.19265036534165   12.09808214559934
H         3.92308023335231   10.23405694783400   11.82712803790799
C        -0.16917533811915   12.55473854554321   12.85185831676043
C        -3.05009278881976   11.70322017493585   11.63690598452093
H        -2.36720202303089   11.68536808123363   12.47500271375524
C         0.57984892861586    6.08971538489590   15.73603410026898
H         0.95830283046162    5.29809862146243   16.36505818011359
C        -1.85337019867579    8.42369554705796   11.77542395791781
H        -2.16297945208814    7.49890925299316   12.26186741320362
H        -2.74932880046314    8.98612396229282   11.50127052357434
C        -5.24715809875127   12.08369534379040   10.74731447027626
H        -6.27961890978106   12.36306605104205   10.89411703544534
O         2.59664267824444   11.18116255515523   14.40204346406496
C         1.85364456535302   11.04763400019202   13.54195597817571

