75
CSD_code = FEGRAN | q = 0 | S = 0 | Stoichiometry = C35H34Cl2FeP2S | MND = 4
Cl        2.25238732829800    4.12818944206941    5.06656307899167
C        -0.60959967867536    5.57790319878259    9.49001025832122
P        -0.54669979313759    6.35827371301417    6.73971842450248
C        -2.93493748014241    3.20929385674964   10.47587126312403
C        -1.47124970840255    5.61332245891731   10.76750526938262
H        -1.62591848101407    6.64612170101244   11.08311468452194
H        -0.98579385113955    5.07398301627211   11.58008833494850
C        -1.87158221243328    6.96219023928964    5.63751080934805
C        -1.48454553527433    7.04347108359523    4.30097453173471
H        -0.47732162125946    6.73140750641633    4.03126661820620
C        -2.36555832846573    7.49129213554185    3.33794531065918
H        -2.05954832902105    7.54753740766900    2.30352411097781
C        -3.65064654021534    7.86048215601438    3.70512880630131
H        -4.34716518573315    8.20713347761989    2.95602072917469
C        -4.04395984853240    7.77423449940800    5.02907306706467
H        -5.04917119001073    8.05222887089008    5.31142719103326
C        -3.16098867862281    7.32779455361557    5.99875602392510
H        -3.49192970348902    7.25685923912864    7.02379308511816
C        -0.23202301108159    4.12235322507938    9.18719478394367
H        -1.11330402376116    3.60556700062984    8.79932021712970
H         0.08731217595045    3.61680314888395   10.10457668145073
C        -1.42410681668149    6.19397721984116    8.34572180892131
H        -1.79068468072347    7.17863327537297    8.65411451458983
H        -2.28417863930631    5.55122341136948    8.12443014571099
C         3.58245072551111    4.98059442725378    8.36191762362576
H         3.39711985432640    5.48882461683109    7.42522787762936
C        -2.62801679361613    0.46747255797040   10.27208601596002
H        -2.49928816262609   -0.60125982832315   10.19135888771166
C        -2.04730829604458    1.15486019534981   11.32506594587987
H        -1.47371382423852    0.62213460206882   12.06935636128722
C        -2.20867655412189    2.52360298068653   11.43795166829812
H        -1.77489843906994    3.05370968573947   12.27352928766070
C         4.99221057345082    4.51527136560163   10.24277976939521
H         5.91212608254726    4.67444894618878   10.78577963320507
C         0.39646823377368    7.92497967480924    6.86226852041468
C        -3.53101032621307    2.52356718161862    9.42633168144121
H        -4.09887372319332    3.06778911552570    8.68736501632485
C        -3.37736241487867    1.15223170098323    9.32974473141170
H        -3.83593861840353    0.62264231045787    8.50841526505137
C         1.08537205591674    2.02802613770079    7.81024978820990
C         4.04559270468709    3.62797552348533   10.73161001347205
H         4.23116247529824    3.09402800613683   11.65248525997154
C         2.30362149118581    1.37865872459485    7.60920721726793
H         3.21872787104130    1.95556039927695    7.58516894677687
C        -0.17394612880712    9.11049422556028    7.31078263129692
H        -1.20855066486556    9.12927485888534    7.62415576847645
C         2.62491866826367    4.10185915878264    8.85237646056454
C        -0.09134106749761    1.28462243705510    7.77844722587592
H        -1.05092712389497    1.77020340937036    7.86214592834000
C        -0.04135353145522   -0.08709816892210    7.60701704391202
H        -0.96059873557239   -0.65383843839798    7.58891135780473
C         1.17397198671960   -0.72967161005026    7.44444163191982
H         1.20833501882054   -1.80070669890592    7.30824292888005
C         2.34662562623610    0.00884937208386    7.43589347232766
H         3.29660053694683   -0.48364297118521    7.28633065884720
C         4.76240659419351    5.18736885297330    9.05445273315714
H         5.50407451858446    5.86955327760196    8.66581914532501
C         1.89724004214567   10.25703425128420    6.91250125650384
H         2.47989543639661   11.16599168048636    6.93728012879472
C         1.71209592582865    7.92256923246875    6.41462248895925
H         2.13320878553671    6.99549990400868    6.03897961052856
Fe        0.56425648159214    4.68907824011069    5.96573803154812
C         0.64075220311599    6.41500291533367    9.75456306802824
H         1.27031660933536    6.41247173673074    8.86439298808649
H         1.21317924010108    6.00583197452413   10.58511885558049
H         0.37690521953480    7.44541481471801    9.98602437807117
S        -3.17256433056824    4.97223926291923   10.57611405613781
P         1.07593560449963    3.85053046907621    7.90943897770240
Cl       -1.34365959866199    3.75368258409303    5.75269795365402
C         2.86765355517042    3.41828779830014   10.04000433182074
H         2.14113788554293    2.70748247993106   10.41072337362612
C         2.46276060492120    9.08363966766032    6.44192098519218
H         3.48512222207499    9.07605201531812    6.09366690344157
C         0.57878741896567   10.26980927955472    7.34032959090058
H         0.13520991430277   11.18991982741094    7.69241677459555

