53
CSD_code = FEGTOB | q = 0 | S = 0 | Stoichiometry = C22H24BCrNO3Si | MND = 9
Cr        2.38030206628333    8.87826565418246    2.72139383343796
Si        1.62885030217856    3.09208865934186    0.71341219669162
O         2.04182061883640    8.72023992144600    5.67151787399653
O         0.15177919684339   10.75845678429773    3.30940064012834
O         0.19113388140453    6.87066020923756    2.90473579619028
N         2.94751259704144    6.58190523491488    0.19312193568225
C         4.47479864543346    5.26275136966390    1.68124185351894
H         4.91567911780252    4.33387007728166    2.01848534202210
C         4.75231962571132    6.37639727757276    2.40334193586821
C         4.61995027940355    8.84922041774054    2.62645996419434
H         5.37227248247802    8.78277654282716    3.40438249246369
C         4.23248087255272   10.10303445591314    2.15770513513308
H         4.65245159409449   11.00626191711934    2.58256213901391
C         3.30538237983192   10.16734226311958    1.11020398764710
H         3.00705975466180   11.12985693300931    0.70985820734292
C         2.85855062598422    9.00172776140634    0.47754995890400
H         2.22697016888293    9.11424074069058   -0.39124272578565
C         1.91813817466778    6.73191198561771   -0.81863718903728
H         1.03349424663816    7.21456221536432   -0.39546601586649
H         1.63027839855253    5.74946971311228   -1.17292783923423
H         2.27831890096751    7.31649969919367   -1.67010880196868
C         3.07987244499518    3.96823755811828   -0.20584486562726
H         3.91558571508855    3.26855821052883   -0.18496841515536
H         2.81144544858139    4.07951247248630   -1.25546445643165
C         2.09872567938277    2.83410534899696    2.54180292704502
H         2.23449134545326    3.78729089656330    3.04392480945682
H         3.02259287480298    2.27323977947174    2.64572595823256
H         1.32495516382642    2.28994595851555    3.07442088144312
C         1.35375069579060    1.40202961537887   -0.13807939672990
H         0.56007074479077    0.84765520673294    0.35252318419954
H         2.24764325067531    0.78655731104659   -0.10810763517260
H         1.07208868183745    1.51800432050767   -1.18042883016622
C         0.01359640350224    4.10295621048279    0.62586583176502
H        -0.80139663080776    3.54993308427074    1.08328818230983
H        -0.28441017967457    4.32548490299528   -0.39477359067491
H         0.10265923223293    5.04189653500770    1.16286931091712
C         5.59300218872433    6.29827827425424    3.61627601012311
C         6.89460199945240    5.81391136933633    3.54007037134528
H         7.29901720959693    5.53139780192893    2.57829031547930
C         7.66870058210152    5.70680546475638    4.68142990160560
H         8.68120365056705    5.33672776461864    4.61059391150266
C         7.14718195242262    6.07031695178860    5.91176839289992
H         7.75200702147942    5.98468283503716    6.80231235209204
C         5.84611945740920    6.53833293862922    5.99735685342955
H         5.42981552406840    6.81461291339030    6.95445485430475
C         5.07174714982271    6.65422322106133    4.85753413435270
H         4.05145629574306    7.00628843646694    4.92466082819723
C         2.24043136401817    8.76442396153014    4.53185434438741
C         1.03003494088839   10.05588942350748    3.04048498276495
C         1.04840244872371    7.64243412057298    2.80564687658632
C         3.32328792280363    7.72000795820948    0.86672814661936
C         4.21112659571557    7.64660257180995    1.98881371843031
B         3.49454889572946    5.30131674894544    0.51257939012776

