87
CSD_code = FEGVOE | q = 0 | S = 0 | Stoichiometry = C30H52FeN2Si2 | MND = 2
Fe        4.40513993363833   -0.00017459011071    0.00002471170918
Si        2.07395231217842    0.23082161778363    2.00962041658742
N         3.75581858828003   -0.00325206257191    1.66335438659819
C         4.75216923459212   -0.11337611358673    2.63556122621015
C         5.11924258791752   -1.37395801719029    3.14221280472408
C         6.13833092495022   -1.46045100402382    4.07573537107320
H         6.42989933072955   -2.42306057738041    4.46591686718156
C         6.79960157560438   -0.32841801312260    4.51495105674139
H         7.58679212786123   -0.41114440814808    5.24988209411099
C         6.46839637785205    0.90541970546777    3.98777495686331
H         7.01516192401309    1.77863687787914    4.30877514388609
C         5.45506731422186    1.03263410115180    3.05192829725128
C         5.16399318628665    2.36129357215290    2.39476303987472
H         4.14443417811262    2.32152267814538    1.99947539777506
C         5.26040808447459    3.54755112252812    3.35287236957046
H         4.68581765873662    3.35708413211707    4.25619271807159
H         4.86437679723890    4.44175633720583    2.87554867153660
H         6.29143204236425    3.74833406265598    3.63322372762456
C         6.11936617004013    2.54211274523132    1.20854939772245
H         7.15218313539554    2.45358256706012    1.53818949293509
H         5.98154995473393    3.52125333352057    0.75582379787139
H         5.92915608593309    1.77250126815816    0.45264686257996
C         4.46065828013652   -2.60928889642297    2.57593882868967
H         3.45047753838632   -2.33335430444145    2.26917356688545
C         5.22465549229313   -3.04012044008183    1.31867810113058
H         5.16936430918585   -2.25076154751610    0.56087732516908
H         4.79788846542313   -3.95291348742118    0.90892389509023
H         6.27060872777771   -3.22133948812879    1.55624734651345
C         4.36165622291225   -3.76506777322919    3.56982846610490
H         5.33577735454811   -4.20933421219934    3.75967381333050
H         3.71355921686125   -4.54175681035812    3.16859990174112
H         3.94422531751296   -3.42402596224723    4.51448802800299
C         1.13502719389226   -1.30123954596746    2.67948382101032
H         1.15002131053616   -2.13157888031761    1.97972095553942
H         0.09378397480486   -1.04727441427896    2.85519158889860
H         1.54749368844034   -1.64890862625326    3.62170574362489
C         1.77620286432265    1.61271257495690    3.30053318467557
H         2.45070100529447    1.49767204104713    4.14369993700980
H         0.76155881445565    1.57365574310863    3.68358470498574
H         1.93210529650007    2.60464568138403    2.88872449615089
C         1.34991150103633    0.67515417388557    0.29759534160808
H         1.08822599204257    1.72479207022902    0.23657110313488
H         0.44964873935884    0.10675315983135    0.09784164786527
H         2.05717524196318    0.46263005726672   -0.50276151198743
Si        6.73614322378180   -0.23091199020137   -2.00989684041643
N         5.05427696595136    0.00296824082554   -1.66337512861058
C         4.05781560098342    0.11324001460455   -2.63548554892157
C         3.69069351046013    1.37384664372834   -3.14196430141153
C         2.67144766867349    1.46041955198775   -4.07531474577941
H         2.37993105378429    2.42304159899556   -4.46551218578519
C         2.01015927349277    0.32842687323115   -4.51460279838092
H         1.22287246783496    0.41123985780648   -5.24943095255344
C         2.34148413119475   -0.90548600560176   -3.98766504671555
H         1.79458364447362   -1.77864752126975   -4.30858942303467
C         3.35491881397234   -1.03276101361764   -3.05193321630996
C         3.64620433984348   -2.36145834814827   -2.39496546370818
H         4.66583885870969   -2.32161317933784   -1.99988462403625
C         3.54987075289470   -3.54752462784629   -3.35331277425181
H         4.12434390920644   -3.35681865582457   -4.25666740333357
H         3.94614169229154   -4.44170485721954   -2.87616091599094
H         2.51885275653636   -3.74848801262399   -3.63357496581132
C         2.69106104158119   -2.54257063097484   -1.20859888668546
H         1.65818428644514   -2.45398328072064   -1.53800205795342
H         2.82898354475282   -3.52177621780652   -0.75606699091150
H         2.88130051851074   -1.77311770453462   -0.45254795967267
C         4.34948471312241    2.60905396661786   -2.57568969948118
H         5.35967061132659    2.33302224988354   -2.26899774687467
C         3.58548581389381    3.03997119322941   -1.31845113090317
H         3.64096530114694    2.25047177187531   -0.56082775488068
H         4.01238560915781    3.95266352319524   -0.90858859086902
H         2.53946628509989    3.22129209335063   -1.55571847541687
C         4.44833545449498    3.76498318816276   -3.56941141864743
H         3.47423822865108    4.20927284332827   -3.75943627872427
H         5.09645000824772    4.54167481356277   -3.16820288789505
H         4.86584057226564    3.42386707611241   -4.51399254489917
C         7.67475047841503    1.30181289883196   -2.67859238280443
H         7.65944039158722    2.13186847738124   -1.97849171534274
H         8.71605812394510    1.04807585742529   -2.85425571851818
H         7.26231455558468    1.64967713569382   -3.62075634356070
C         7.03380949903813   -1.61180963338171   -3.30182443762553
H         6.35908520173371   -1.49610089211927   -4.14470474993246
H         8.04835303645924   -1.57205118374345   -3.68504949171295
H         6.87823798054382   -2.60417258306302   -2.89086709345170
C         7.46012253732144   -0.67563350307828   -0.29812805696501
H         7.72275462255947   -1.72506348236165   -0.23694051022509
H         8.36055795596015   -0.10724207351759   -0.09777657655666
H         6.75346889122932   -0.46367492060807    0.50291274187699

