53
CSD_code = FEGVIX | q = 0 | S = 0 | Stoichiometry = C26H20Cl2N2O2Pd | MND = 4
Pd        4.46523684934566   12.45061210735052   12.47639781426633
Cl        3.34477277871590   11.12035275817436   11.10620655208988
Cl        4.84721460798993   10.68529074389252   13.75669450830833
O         1.26763137374517   13.97461578919453    6.67610877539490
O         7.89445964683919   12.05731262768875   18.32964649816913
N         4.05093900777434   14.13852138150224   11.45308890529760
N         5.34242542155643   13.76551093758953   13.72951297194511
C         4.28165673086938   16.63891980398177   11.89510752129282
C         3.81057908314606   17.44584348217233   10.88573739422957
H         3.32955111015552   17.03863948791426   10.00988543738928
C         3.97363799059003   18.83788358539991   11.00227257182189
H         3.59330507951348   19.46137477330120   10.20628952888585
C         4.59538194577646   19.42684453731233   12.07559544192506
H         4.70019766237295   20.50065415732853   12.12444180626214
C         5.83046204244377   19.06989790331193   14.25670615524734
H         5.99171483482676   20.12732280774026   14.40600065705412
C         6.32578402056341   18.15809150238007   15.15599348862164
H         6.88087363120807   18.51117096711904   16.01284319695819
C         6.14720305752442   16.77060906751209   15.01111516350353
H         6.57566618427958   16.10070439380642   15.74047398916129
C         5.43488283357042   16.30571293474638   13.93023308233122
C         4.93680560959656   17.24964868881793   12.99543047717695
C         5.11924022451391   18.62970729708003   13.11795282512329
C         4.36258204171195   15.20358589738444   12.14045574285283
C         5.07380662799116   14.99816068685346   13.39453192936540
C         3.34051271027800   14.17240140373144   10.25745053140988
C         3.82479307907854   13.44495330450283    9.16395331336685
H         4.76396668140108   12.91546380951169    9.26223845165199
C         3.11759172368393   13.41759112222556    7.98716801813983
H         3.47957707412382   12.86780578858288    7.13376285503779
C         1.88966768215048   14.07992174519226    7.87622827906913
C         1.39441159516070   14.78194131016179    8.97243583625936
H         0.43943760923578   15.28133985753621    8.92960843428662
C         2.12043142757794   14.83504207030225   10.14732069477804
H         1.71601307666572   15.35095387795153   11.00686968961030
C        -0.00388161712618   14.55688351842851    6.51639024521510
H        -0.72736807617620   14.13966947568475    7.22353755287728
H        -0.31300960696190   14.31456446938338    5.50100966034006
H         0.03392419812759   15.64516603395744    6.63171240757253
C         5.98366702471412   13.40837292522906   14.91130369309223
C         7.05652857223814   12.51121540028366   14.85121140289126
H         7.38933295996535   12.15765398528892   13.88354469505177
C         7.67599666140518   12.09985250350429   16.00559647954637
H         8.50745564763811   11.41470332478397   15.97658743077950
C         7.22161782951910   12.53748741543554   17.25492489286108
C         6.13723703292052   13.40928376002144   17.31679286816202
H         5.74515971636967   13.74511248705301   18.26374653977253
C         5.53269634913229   13.84756564825855   16.15365628812881
H         4.66908953287526   14.49552720755619   16.20729459464056
C         7.44797841531488   12.40004060916023   19.61980083821692
H         7.52091220154551   13.47793547076112   19.79832489347268
H         8.10937882464834   11.87707565797714   20.30851222156708
H         6.41797127788778   12.07088749797735   19.78799475752303

