34
CSD_code = FEGWAR | q = 1 | S = 0 | Stoichiometry = C10H17N4NiO2(1+) | MND = 4
Ni        2.00864252875633    1.60737300201108   11.01732599844201
N         0.55520819955253    0.83353815151750   10.32024939380612
N         2.58107055465777    1.81137303754907    9.29207102419585
C         0.55333295724764    0.76755122554749    9.00538803333873
C         1.74205747772674    1.35993972218626    8.40943986192043
N         1.65420136677803    1.53465083636832   12.87530371056299
N         3.59803040971252    2.40095818299856   11.51187275936881
C         2.61466524795771    2.03844379193140   13.58538670662040
C         3.76754579557362    2.51600475925871   12.78101887278266
C        -0.56580946599990    0.15568434643114    8.23396265060686
H        -1.34606647416154   -0.15631723526476    8.92417331974996
H        -0.22210668571727   -0.71580729603434    7.67870501871916
H        -0.98353158391182    0.86856061522200    7.52553722219155
C         1.90847567954149    1.43312869699458    6.93684446201593
H         2.90688945007425    1.75229282433573    6.65393490838204
H         1.18713006848784    2.14004887626204    6.52654907732389
H         1.69643718794001    0.46419180763464    6.48927302531118
C         2.58314145757833    2.12867998684804   15.06648580045415
H         1.69614050538767    1.62862650258661   15.44732447307680
H         2.55700912426003    3.17101608449396   15.38270285477164
H         3.46860055967951    1.66941759996904   15.50138602179832
C         4.97807517312251    3.04048382216226   13.46041574354458
H         5.67493981065530    3.48720479289403   12.75749073902463
H         5.48528082069268    2.22716903403336   13.98017587342683
H         4.70135237809327    3.77856077400444   14.21066862574217
C         3.83166393415070    2.51639644434670    9.07745863754938
H         3.61910464231154    3.49284070354403    8.62571952636718
H         4.48294528866465    1.95713635123540    8.39653822396512
C         4.53734854029793    2.71052230363275   10.45181367615664
H         5.39422106045308    2.03113692518719   10.53086621321627
H         4.90692210408739    3.73745620295496   10.54577729242948
O        -0.36412304478851    0.41210020400415   11.07777749494656
O         0.54864041751243    1.05319456187629   13.46701414289773
H        -0.03513548637449    0.70334236127686   12.71284861529408

