52
CSD_code = FEGXAR | q = 0 | S = 0 | Stoichiometry = C21H25Br2N3Ni | MND = 4
C         5.28519638824312    1.29109368466116    6.30204244305863
H         4.32421969044291    0.92247895658595    6.63792502777924
C         5.96460165388485    0.67585149723495    5.26380849125195
H         5.53572257731328   -0.17765376192315    4.76419153587179
C         7.19792990798565    1.18343266567424    4.89069544589565
H         7.75984508357064    0.73439558370351    4.08541586377614
C         7.70535616380905    2.27656950067174    5.57421262555094
H         8.66515821732681    2.69532183279240    5.31395914572637
C         6.95379093549256    2.83272966202566    6.59992974851100
C         7.43894252188227    4.05361350495874    7.34656372717500
H         8.50709232331701    4.19947002132943    7.17903003793721
H         6.89522133480385    4.92360753211402    6.95077215815311
C         6.02438081750778    3.77767526211504    9.38930808660339
C         8.20154568778650    4.09952279191256    9.70576965348918
H         9.22286254747842    4.27376748917352    9.43686853648527
C         7.62209632855679    3.97182396930182   10.92019285246320
H         8.03779073906424    4.02786566085087   11.90457398859400
C         5.37333170915167    3.49529655803635   11.77243307371993
C         4.33202200690820    4.38014996629762   12.04921820322199
C         3.47852178224804    4.08482020033452   13.09881055547649
H         2.66983877558915    4.77148721978287   13.29552347928940
C         3.62096721028908    2.93794288226560   13.87140955631475
C         4.65866763872876    2.07275465813360   13.55616972025738
H         4.79358556440727    1.15745965175671   14.10735754743339
C         5.53824087589501    2.32733133294849   12.51434135120481
C         4.09277877566438    5.57828309958798   11.18788401052238
H         5.01474490035967    6.11408803237919   10.96544064218822
H         3.38840910929404    6.26138926415701   11.65384620519618
H         3.65467410555097    5.24554739158235   10.23554873168186
C         6.60019900829372    1.32777042741175   12.16573642626525
H         6.63643509826549    1.17271075531320   11.08861888894039
H         6.38258573539145    0.37496038403704   12.63974155498239
H         7.58465814794138    1.65641255026383   12.49877921923749
C         2.62849518292916    2.66407827684662   14.98884443231124
C         1.22319793931709    2.56192669774780   14.37968955536480
H         0.91851596136501    3.50008574099856   13.92523500438821
H         0.49871397423013    2.30531540422490   15.14956814341047
H         1.20470944723108    1.79139885995912   13.61247615484936
C         2.67952847651416    3.81586906552834   16.00245980703945
H         2.42649277757425    4.76513663797917   15.53896230333901
H         3.67752001266021    3.89923766185108   16.42829588981490
H         1.97406125611808    3.63331028955245   16.81010694116588
C         2.92253260130854    1.35875705550361   15.73242913893467
H         3.90796074062643    1.38175915749955   16.19247220407592
H         2.85893689892098    0.50637145021869   15.06074152104799
H         2.18704982999876    1.21931548085409   16.52206289818481
N         5.76316652565645    2.34779930097331    6.94562306937712
N         7.21049202584602    3.97401618150419    8.77113267384254
N         6.28554818795048    3.76539265235468   10.71097563186047
Ni        4.45698770568938    3.53413411511746    8.50012542058124
Br        3.56492343351149    1.81069329953168    9.56613303972400
Br        4.31615366010774    5.48383244428278    7.40424763642860

