86
CSD_code = FEGXIY | q = 0 | S = 0 | Stoichiometry = C40H40ClOP3Ru | MND = 6
Ru        2.05008077820383    0.73415813564413    4.34606290642489
P         3.48667350891105   -0.04902097305532    6.01284288961985
P         3.18092670833408    2.72179814414615    3.91501093513378
P         0.49048839414056   -0.95345423783527    4.55323226390744
Cl        1.04966036096085    1.89144104234219    6.18012342114729
O         3.09755247510803   -0.81050697611325    2.01923650047179
C         2.74745969077322   -0.18557480560385    2.92523543160694
C         2.68490548346090   -0.80499227458283    7.48016146003625
C         4.72262062014251   -1.29128610450072    5.51280832947100
C         5.40151277422673   -1.05065125420150    4.32020040158993
C         6.36311247614537   -1.93189116218212    3.86552281543339
C         6.65311829526155   -3.07226949668051    4.59749277406430
C         5.98493843572557   -3.31663022030848    5.78508880585599
C         5.02671121783473   -2.43040501643675    6.24645555216219
C         4.57986160133261    1.11854934017031    6.90400877768510
C         4.02303634835047    1.91823207632159    7.90164806026845
C         4.81274399211216    2.81253604784884    8.60104300823506
C         6.16373442176673    2.92347101756921    8.31343451829759
C         6.71911139541304    2.14030142157136    7.31554582532058
C         5.93429519821807    1.24271386853655    6.61187649124435
C         3.61510090870896    3.92441294620201    5.22855710139079
C         2.26931488088207    3.90575205580513    2.86310865179252
C         2.85855227797658    4.61838110313649    1.82635766024569
C         2.11905640960262    5.55434127468062    1.12373069564573
C         0.79822849159774    5.79698068050383    1.45972128086989
C         0.21416350664542    5.10570113908033    2.50915089249851
C         0.94663940489872    4.16569478652630    3.20856598097159
C         4.73387823030222    2.48198430196399    3.00224879785552
C         4.62708864154618    1.93620452733967    1.72292629413688
C         5.76034068218988    1.61922172722548    1.00076206832622
C         7.01428342134231    1.83371691827170    1.55386579558212
C         7.12664926623129    2.37690795085313    2.82191682348694
C         5.99228831846798    2.70334102129926    3.54695748488460
C        -1.01650135572500   -0.52644203280851    5.49263622923695
C        -0.26969233192771   -1.48809389202473    2.97644970776982
C        -0.88631769667064   -0.51308707189693    2.19696817145170
C        -1.50640509571280   -0.85020115312142    1.00947800055070
C        -1.51708259385285   -2.16833567024225    0.58249008129546
C        -0.90906032057665   -3.14329969674288    1.35305465571877
C        -0.29112502085771   -2.80929343799227    2.54613679375555
C         1.00214924833784   -2.56679656330703    5.23425657138433
C         0.34144853111793   -3.23096768254012    6.26175225697966
C         0.82401208361959   -4.44361992355806    6.72568386521065
C         1.95964477074276   -5.00587910132557    6.16736733839932
C         2.62118971660714   -4.35133793121171    5.13981394585643
C         2.14937151255249   -3.13607102270807    4.68261015171644
H         0.98897960397399    1.33136828960572    3.42472296516703
H         5.16670515511800   -0.16018949030770    3.74788034970919
H         6.88142566964458   -1.73021871871537    2.93941801650080
H         7.39825370043478   -3.76905432424624    4.24229329418829
H         6.21076672872216   -4.20428467410943    6.35883459143491
H         4.51737103451307   -2.63835838706925    7.17510987576366
H         2.96335491904869    1.86515015732490    8.10437545386129
H         4.37087517874305    3.42733188596923    9.37151250449069
H         6.78080068163481    3.61961044501244    8.86247144056553
H         7.77117121109476    2.22494383941251    7.08277887096510
H         6.38142954372102    0.63701432746060    5.83660467298172
H         3.89213261132589    4.44207773911557    1.56260909964786
H         2.57959234845706    6.09855697465876    0.31155637794907
H         0.22568260812968    6.52737657341522    0.90669545139404
H        -0.81297618020305    5.30117614064684    2.78121546137220
H         0.49680186871375    3.62084240508541    4.02912176841035
H         3.64012442580953    1.76920671884742    1.30750012046390
H         5.66860657258053    1.19836172137178    0.01028622878102
H         7.90239991192288    1.57710496476277    0.99500017093158
H         8.10328304477908    2.54636418343327    3.25248393960659
H         6.09232597734057    3.12371609854911    4.53656419035240
H        -0.86138785913059    0.51855990061921    2.52198834618036
H        -1.97915230106869   -0.08370296659686    0.41289415253063
H        -1.99597963178884   -2.43375200178497   -0.34856851702410
H        -0.91401236309105   -4.17328302947282    1.02649543538165
H         0.17455043830108   -3.58511163742324    3.13601617935555
H        -0.54301829663912   -2.80437778755274    6.70994317900331
H         0.30833525107407   -4.95199320153104    7.52772049488809
H         2.32922009191347   -5.95269990434340    6.53258899774101
H         3.50702474072689   -4.78442722981856    4.69920323511432
H         2.66412485679360   -2.61629487422587    3.88416067396848
H         1.84327005370146   -0.16952291673956    7.76136150300093
H         3.38955948905006   -0.86510342613979    8.31072464906003
H         2.30877194455057   -1.79566640582159    7.22911135275950
H         4.02647233095016    4.82213426642167    4.76386286242844
H         4.32225086578553    3.50344562085668    5.93863173091232
H         2.69258349150271    4.16941652374095    5.75786849830232
H        -1.39494202797209    0.40920212192673    5.07743870187873
H        -0.75701177293932   -0.35090737669845    6.53718833747397
H        -1.76972598166206   -1.30954637167249    5.39513687753450

