55
CSD_code = FEHBAY | q = 0 | S = 0 | Stoichiometry = C22H28N2O2Zn | MND = 4
Zn        7.07599631595441    7.07599631595178   -0.00000000000334
O         7.48670193238828    7.91952159479224   -1.58078133754849
N         5.17162613898225    7.60854307968036    0.07198974189621
C         4.62645281410442    8.19648718394822   -0.93536512617989
H         3.56413551116961    8.46127947348480   -0.86176855737539
C         6.64506117394113    8.42531110868014   -2.41373219906193
C         5.24531238351944    8.56159799741938   -2.16172411079466
C         4.42209299379183    9.12839293554772   -3.15676406611909
H         3.36513897751133    9.22808699335472   -2.94769158010194
C         4.92046057122875    9.54336947532674   -4.36122724835462
H         4.26933486594837    9.96969134477171   -5.10877884901139
C         6.29075011739444    9.41474496826964   -4.61324046135859
H         6.69119248083680    9.74437973937924   -5.56131853534072
C         7.12363873513876    8.87799893844584   -3.67080689102334
H         8.18285741573700    8.77776330650224   -3.85469896319373
C         4.58682328512452    6.03103515668344    1.82764973785297
H         4.31454068418326    5.28618285141273    1.08304799311442
H         3.96707797629150    5.88409031273504    2.70889975639659
H         5.62772065172203    5.88667617300174    2.10658376296458
C         4.38425732413811    7.43742739033122    1.27345486598267
H         3.31668135436811    7.58319189547974    1.03809616108261
C         4.80991922694269    8.49165170233401    2.30704454256613
H         4.33329730783558    8.25129904191565    3.25944306887972
H         5.89091120375228    8.42598652596592    2.43605152086269
C         4.43192988597312    9.90628517252129    1.88773132676072
H         4.91467939046171   10.16958087388264    0.94884945722669
H         4.75168068544145   10.61834686660783    2.64426095590204
H         3.35391076694726    9.99989572672972    1.76336351690500
O         7.91952159474198    7.48670193237541    1.58078133757158
N         7.60854307976811    5.17162613900206   -0.07198974193333
C         8.19648718412008    4.62645281415050    0.93536512610841
H         8.46127947335555    3.56413551113117    0.86176855744517
C         8.42531110850316    6.64506117390819    2.41373219914385
C         8.56159799738938    5.24531238351619    2.16172411081005
C         9.12839293553258    4.42209299379062    3.15676406612686
H         9.22808699337859    3.36513897751713    2.94769158009229
C         9.54336947534286    4.92046057123204    4.36122724835194
H         9.96969134473771    4.26933486594301    5.10877884902773
C         9.41474496842480    6.29075011742065    4.61324046130007
H         9.74437973928050    6.69119248081896    5.56131853538770
C         8.87799893853345    7.12363873515262    3.67080689099100
H         8.77776330651306    8.18285741573704    3.85469896319315
C         6.03103515667470    4.58682328511505   -1.82764973785597
H         5.28618285140822    4.31454068418079   -1.08304799311180
H         5.88409031270753    3.96707797628376   -2.70889975639879
H         5.88667617299225    5.62772065171181   -2.10658376296759
C         7.43742739033122    4.38425732413508   -1.27345486599267
H         7.58319189549970    3.31668135436823   -1.03809616108963
C         8.49165170233121    4.80991922694241   -2.30704454257164
H         8.25129904189882    4.33329730783276   -3.25944306887963
H         8.42598652596240    5.89091120375198   -2.43605152087018
C         9.90628517252075    4.43192988597590   -1.88773132676444
H        10.16958087388577    4.91467939046120   -0.94884945722931
H        10.61834686661023    4.75168068543976   -2.64426095590505
H         9.99989572672683    3.35391076695041   -1.76336351690552

