85
CSD_code = FEHCAX | q = 0 | S = 0 | Stoichiometry = C66H15I2IrO | MND = 8
Ir       10.74393589819790   15.26455168633463   11.24603112139253
I        13.25265278919776   16.14413571535900   10.78104255105706
I         9.73431650238830   16.86917539102874    9.32562183088399
O        10.59889382674214   17.78471011637347   12.87368943369874
C         9.84755855098781   13.77749126311891   12.65332094277808
C         9.07789112247207   13.78331566446756   11.45215384504188
C         9.91615495003806   13.25607249787262   10.39104213954784
C        11.18739934913130   12.99539067275985   10.92473822116968
C        11.17144674828254   13.35483534242302   12.33091589935825
C         9.26935856243849   13.79004227196850   14.03697835820084
C         7.57658059192771   13.70239592585904   11.44153101032983
C         9.37307103501022   12.60674092556350    9.14730460203818
C        12.17493474478041   12.03286938615464   10.32349478030243
C        12.11550498071794   12.77367399272724   13.34666015909044
C         7.88623889902961   13.15745063729970   13.93110419081517
C         7.14590873420573   13.11555626253507   12.78512549883489
C         7.19484682893454   12.56171438493540   10.50107924647933
C         7.98339684742247   12.08129070254355    9.49526973299822
C        10.13312771457071   11.29585922223905    8.97052728462804
C        11.36806300003591   11.04286159994087    9.48931976441319
C        12.65066361960394   11.12598788287777   11.45461221451948
C        12.62551830313566   11.45047911932397   12.78066708957272
C        11.26894332233327   12.27209717039559   14.51581110865031
C        10.01783520155035   12.72138775073723   14.82579225577850
C         7.77302113720165   12.10659153256516   14.89016164501417
C         6.25665169365865   12.02172927084280   12.56253332663233
C         6.28646827871844   11.68296305886909   11.16558963542636
C         7.88862848084286   10.70679380862495    9.11942787789213
C         9.20511955047548   10.22614673137568    8.79850972311789
C        11.72320369940346    9.71074311070658    9.85570778511162
C        12.50869916826924    9.76125156107023   11.05886701868815
C        12.45529704196856   10.42063046405402   13.75500562671150
C        11.62552650858538   10.92314313777820   14.81619108133454
C         9.07644122387375   11.83992273337737   15.43721616834580
C         6.87298764643498   11.06226929458518   14.71025265421577
C         6.09229318752004   11.01964935742358   13.51340977777572
C         6.14675659804551   10.35553883431002   10.77528654343018
C         6.97167717833084    9.85282157627748    9.72200609491204
C         9.55538181131206    8.91395272635679    9.09856256602883
C        10.85081831025639    8.64875210134777    9.64233450623281
C        12.39523724275894    8.74284783992470   11.99863051815774
C        12.36779945950394    9.08247626576622   13.38663406242347
C        10.73892504571092   10.06874040430828   15.46387251757416
C         9.42722725439519   10.53959604564816   15.78238017532626
C         8.49853202714152    9.45556107619738   15.58360741638174
C         7.24177754705469    9.71269692676841   15.05611222693904
C         5.96657346298609    9.64234183215958   13.10867710644622
C         5.99312033405133    9.31579713432264   11.76118741911479
C         7.33849312414502    8.49707669570502   10.04550689284738
C         8.61017853830444    8.03550775882681    9.73993978537406
C        10.72042021169626    7.60359282420420   10.62573984050535
C        11.48126592570730    7.64918337511181   11.78448185993640
C        11.43759636310324    8.20161321213297   14.04655182609932
C        10.63570795715095    8.68685248052309   15.06854545526178
C         9.24735510929534    8.30858583125337   15.13786723535926
C         6.68298265089910    8.83333630455736   14.06146579314413
C         6.73618681233406    8.16634037109333   11.31163331066505
C         9.33149301392558    7.22612559162719   10.68877765341804
C        10.88418944666311    7.31741270548084   13.05279592491954
C         8.71013248384792    7.45906103454032   14.17723117935208
C         7.40445701751948    7.72624649509180   13.62915398584731
C         7.43102853532020    7.38623521345096   12.22913230559366
C         8.75288142089247    6.90798817484006   11.91217793540893
C         9.54368474655841    6.95385453542491   13.11591367883922
C         9.25214657964034   15.14913773513811   14.73980983824009
H         8.81171105366134   15.04183320968243   15.72851909876862
H         8.65885473624474   15.86430261199553   14.17249826847371
H        10.26464241363278   15.53331751962101   14.85198653687351
C         6.84892686444779   15.00919832537840   11.11432884223746
H         5.77538670150327   14.85741311619389   11.19690251215975
H         7.07691562256165   15.33178762369338   10.10155853784880
H         7.14526743869367   15.79432694658474   11.80766899765668
C         9.38261691830304   13.45026724574316    7.87033637899577
H         9.07045855920502   12.83392955734973    7.03037609012314
H        10.38139067488665   13.83172081010658    7.66915137259048
H         8.69737052222010   14.28946716455168    7.95663242006959
C        13.33296935766607   12.63867602872730    9.52714883999242
H        13.90134629089940   11.83963935792330    9.05663076991813
H        13.99856836976550   13.19881414847318   10.17856742002663
H        12.95977599928123   13.30316671245322    8.75084809823378
C        13.24632901813509   13.70202042126367   13.79792764319432
H        13.90125758366429   13.94154626293911   12.96384774650969
H        13.83339816078032   13.21138590772929   14.57057646152303
H        12.84041521132886   14.62775354554039   14.20210550676228
C        10.64239255448112   16.81494073554876   12.27356720241784

