31
CSD_code = FEHDOM | q = 0 | S = 0 | Stoichiometry = C16H11ClN2Pd | MND = 4
Pd        1.04281064808795    9.04063334421235   -2.14560566404752
Cl        2.95158563238319   10.30133281776157   -1.97232379993111
N        -0.17461808097079   10.08746047019174   -0.89131145331343
N         1.68884215771798    7.61819064198643   -3.45352463994470
C        -1.67745550342871    8.37482980744187   -1.56148535591429
C        -0.54813302293593    7.98978724421484   -2.28988232337589
C        -0.53835591770517    6.86418331520916   -3.11877298797825
C        -1.70145622562887    6.10218637986831   -3.21591130504376
C        -2.82476539418273    6.48271883103572   -2.49321119078266
C        -2.83237362149518    7.60219322650103   -1.67126211954235
C        -1.43534860834525    9.58140834473679   -0.77120336554476
C        -2.36795488419743   10.20807358421009    0.05162154766689
C        -2.01311645407873   11.34717207516430    0.75141438156502
C        -0.72449661454797   11.84412567813153    0.61714486448547
C         0.16158327300894   11.18106744286441   -0.21663032947546
C         0.75626813489157    6.67546671745555   -3.77244270071927
C         1.07253864675720    5.64524758543861   -4.65448080611371
C         2.33718034858618    5.57917340734299   -5.21075538795204
C         3.27051454098038    6.54947939971728   -4.87471771700818
C         2.90168775975231    7.55072624519343   -3.99073250186712
H        -1.74530793743033    5.22246867845648   -3.84205188503694
H        -3.72299697413033    5.88762676645652   -2.57298990565334
H        -3.73189058780750    7.85752247995695   -1.12945703439995
H        -3.36229592518959    9.79842214546984    0.13591382499988
H        -2.72893290792007   11.84063899980209    1.39183919530687
H        -0.40900518446361   12.72854162049578    1.14655872126715
H         1.17941635138417   11.53361069479944   -0.35361238595733
H         0.32596605951895    4.90536391191240   -4.89697959175869
H         2.59238475774797    4.78441910364128   -5.89578932321211
H         4.26610792584313    6.53354729571782   -5.28770870690080
H         3.59851760779824    8.33028174461327   -3.69795005381764

