77
CSD_code = FEHFAA | q = 0 | S = 0 | Stoichiometry = C28H42N4O2Zr | MND = 6
C         8.21423658728324    4.42031550343291    7.18214608378589
H         8.31759363042642    3.89524853298178    8.13723767939214
H         8.49544986891472    3.72550876449950    6.36849782671731
C         6.52654516065991    5.42663741497635    5.76383315221252
H         6.27906198803087    4.66819119692414    5.00127770427012
H         7.44412595654233    5.91218169998326    5.43306605402694
C         6.01384995891865    3.54350796367060    7.20908576389202
H         6.36825091880430    3.05059416207457    8.11798284349020
H         6.18158130184667    2.86736599909437    6.34964176547311
C         4.51905847912280    3.81562214108745    7.37697244019174
H         4.09627980597933    4.12401096187370    6.40008794891063
H         4.02106343758880    2.84714665792940    7.61686611420715
C         8.92332196642243    6.55661550036775    8.38310463895278
H         9.08596387837766    5.98658498940852    9.30423463204376
H         9.69362389059620    7.35504292071123    8.33629350732064
C         9.19960301173551    5.58642726597899    7.20456537379056
H         9.20993824670574    6.13070150602627    6.25809287130071
H        10.20099195483567    5.16749765605979    7.33117322615449
C         5.10535388551535    7.53201936638949   11.32614927155919
C         4.52568333268253    6.68172481863670   12.29009944465417
C         4.62510075815033    6.99956588377339   13.63503982751712
H         4.18214238486019    6.33422087102334   14.36291856161942
C         5.28028962127351    8.14240381610435   14.05558214387981
H         5.34721231866767    8.37747734152435   15.10754668367807
C         5.85321807822686    8.98118636286725   13.11495236124179
H         6.37157580723986    9.87519762750876   13.43563700599239
C         5.77950319867715    8.69311831329324   11.76342675712230
C         6.42472542703327    9.58324815229117   10.73926300001604
H         6.98359492019056    8.97220447509369   10.02465352706867
H         7.09736669952346   10.29311407581385   11.21596320933947
H         5.66580159818122   10.14568319756110   10.19101414678396
C         3.78543385736487    5.45135441691992   11.84841723215087
H         3.85467290860784    4.67686000862990   12.60962498179037
H         4.20340495101810    5.07872606723243   10.90476237620886
H         2.72824113980080    5.68312046373225   11.69545051112651
N         6.79054512192716    4.77937558015105    7.05140247266456
N         7.60200307227508    7.12648273710405    8.42549628390563
O         4.98746837039800    7.28238893229311   10.02345096067084
Zr        5.96028540662949    5.95656624622654    8.99008456310384
C         3.70627766072113    7.49291490486597    7.18163555294990
H         3.60277647496366    8.01843720617928    8.13646190418852
H         3.42514347541327    8.18735673661931    6.36766594065966
C         5.39425419596694    6.48653845443604    5.76367252768205
H         5.64184621918776    7.24489931628825    5.00106683011486
H         4.47675175620359    6.00095551004022    5.43276797933494
C         5.90666705940019    8.36983407772202    7.20866885253865
H         5.55200969842201    8.86306031817590    8.11729079434919
H         5.73912498549789    9.04573095434942    6.34898960108414
C         7.40144227613168    8.09790424789890    7.37694736373009
H         7.82447225319152    7.78956472184675    6.40015955781804
H         7.89929390165291    9.06642915345952    7.61697315290899
C         2.99728647578935    5.35726712567116    8.38314625255270
H         2.83490606975149    5.92752401671062    9.30420976765184
H         2.22677626484296    4.55905325601060    8.33655659670160
C         2.72077367355519    6.32692885048847    7.20424054749718
H         2.71048741513011    5.78234256670423    6.25794196045275
H         1.71938138131737    6.74591731063551    7.33067922733067
C         6.81444135723325    4.38041971975927   11.32589767592191
C         7.39441305610351    5.23080323297971   12.28958069334032
C         7.29528692736424    4.91325498321516   13.63458597097053
H         7.73853983989424    5.57866067580303   14.36221677146273
C         6.64030518094146    3.77044545051730   14.05545541949681
H         6.57356320624307    3.53556621749288   15.10747241810867
C         6.06715346851039    2.93154697446552   13.11508798052218
H         5.54851609418665    2.03779087769640   13.43607672638602
C         6.14036730886000    3.21943412806542   11.76350032033183
C         5.49457960521516    2.32920477765799   10.73971495589967
H         4.93518122158789    2.94000747222546   10.02542928730402
H         4.82234380843738    1.61933019445394   11.21679908775266
H         6.25300795207041    1.76671847035014   10.19094882186662
C         8.13478741164975    6.46088755948660   11.84735656356631
H         8.06718590288750    7.23514709401546   12.60895791705650
H         7.71567578348728    6.83412092040412   10.90442690111743
H         9.19160305421867    6.22846408991639   11.69267136996148
N         5.13001432711755    7.13392789336922    7.05114629816844
N         4.31845241315099    4.78702721458570    8.42552329250376
O         6.93234794303057    4.62984373432440   10.02318217071939

