61
CSD_code = FEHFON | q = 0 | S = 0 | Stoichiometry = C26H34Zr | MND = 12
Zr        2.62515154057490    4.39004883065115    5.68180331232390
C         3.15041048854387    5.89031744763029    7.23521640577381
C         4.31279979017981    6.00982208295340    6.38611578213770
C         5.10953050357030    4.85971483735176    6.56453084463686
C         4.49730095912224    4.03126928343893    7.55336219606741
C         3.30687191754970    4.66032649776273    7.98244763225393
C         0.49398945913501    3.51377829901078    4.85829706832710
C         1.50770643042989    2.89471565905961    4.07352670628122
C         2.28198036379950    2.07713850313862    4.94517307725912
C         1.71516487437568    2.14834131120231    6.24996799959310
C         0.61289680591938    3.04507945682218    6.19739712423644
C         1.81159144144255    6.25570952654261    6.70563194167414
C         4.67997790073348    7.22578395725829    5.58016424663155
C         6.48331345771264    4.62874456812188    6.00231032814734
C         5.19860960129952    2.87066945643436    8.20636374109803
C         2.47144341386974    4.28121853289951    9.17607843777532
C        -0.58354575923078    4.44728534845442    4.37512003676720
C         1.58374832876529    2.91266038698860    2.57031843124348
C         3.43155987395088    1.17826791292837    4.57066450365481
C         2.05675262732071    1.18255852543967    7.35253624239119
C        -0.41439553765887    3.30553387871076    7.26576220427285
C         3.25615327478697    5.18671866796111    3.75487339915676
C         2.59847756213669    6.22310663549861    3.07423337661001
C         3.03017284582658    6.68945433963384    1.84056507684220
C         4.14379196149717    6.12906242850683    1.23780130775149
C         4.81756003081833    5.10009470973161    1.87370989399712
C         4.37625680190879    4.64123717583173    3.10692260528381
H         1.78280124118362    7.22086306996824    6.18392744038406
H         1.00336400299955    6.20369756236907    7.44758307595813
H         3.79517821260490    7.81025402178425    5.32924148524307
H         5.18719400337540    6.95875405758472    4.65291468691843
H         5.35335642679091    7.86624383130402    6.15677179972649
H         7.24701515072235    4.93137785982629    6.72357165077634
H         6.63482371919870    5.20782895864132    5.09306554113451
H         6.64546271621363    3.57356396235745    5.77624032487912
H         5.48238751934346    2.10450225523667    7.48008667905501
H         4.57614328541490    2.41285681271340    8.97252193268063
H         6.11775246585330    3.21342049460049    8.68770014239713
H         2.91499006123436    4.69814884068449   10.08577418062596
H         1.46177792906306    4.68389452077749    9.09276180686471
H         2.41216480036990    3.20205571697985    9.31056595272013
H        -1.56544245554774    3.97326123123437    4.44747761790182
H        -0.41903985398705    4.72247664844656    3.33500399951935
H        -0.60493431158984    5.36112343866040    4.97871965715730
H         0.90280218961687    2.16319974421931    2.15796573371180
H         2.58780704444013    2.68502806658232    2.21584374685316
H         1.30186300606493    3.88405209950651    2.16541512010073
H         4.30038370606902    1.35467877598390    5.21534756727783
H         3.15098768302922    0.12717508166377    4.67854930499129
H         3.73184678378818    1.33715085199383    3.53597390854195
H         1.51424783681422    1.41227588310509    8.26723462009362
H         1.77269922874376    0.17039048987451    7.05059602882220
H         3.12500690227620    1.16871387646218    7.56978896141231
H        -0.08765395949161    2.93563454238449    8.23523673037209
H        -1.34874687775945    2.79707961384306    7.01384690139749
H        -0.63559110238550    4.37139920848570    7.35272957823352
H         1.71601891155760    6.68208266667632    3.52748786712471
H         2.49977201090127    7.49202244760918    1.34420828984330
H         4.48439795474899    6.49085004964902    0.27755314949656
H         5.68738882803275    4.65728365298301    1.40458717144164
H         4.92830398212490    3.82350140465786    3.58271342642982

