58
CSD_code = FEHFOO | q = 1 | S = 0 | Stoichiometry = C20H32N3NiO2(1+) | MND = 5
Ni        3.31548284778286   12.83691459266792    2.53853253121232
N         3.07539119286176   14.68280063237728    2.65423533905366
N         2.38411678209584   12.53625854836750    4.25242983247820
H         2.62048601126058   11.54827552277280    4.38959466551076
N         1.45249225268932   12.67098724964945    1.10267978979884
C         2.92322161379867   15.38545903674246    3.70835566494560
C         2.88380692938048   14.80937882441139    5.09598188056191
H         1.90981857295963   15.07390409331641    5.51932702506528
H         3.62502047603044   15.34750004074890    5.69290735354081
C         3.13062621492088   13.30173043851856    5.27782790571110
C         0.91930150251158   12.62545284999297    4.31899899566706
H         0.62217890556385   13.67522051651405    4.28814186144199
H         0.56473846364202   12.19406436884096    5.26218427180071
C         0.24569673285076   11.87618762808663    3.16716289689272
H         0.75382096689849   10.92383710429658    3.01172847622677
H        -0.78057132345889   11.65698140139588    3.46495517777651
C         0.18746296156311   12.66692401235609    1.85821159801536
H        -0.61176852384436   12.25162812852992    1.22679861292107
H        -0.08323097230998   13.69715250935525    2.09548085467275
C         1.43337610904188   13.76344977642946    0.11189617725473
H         0.47457688751580   13.76017139086602   -0.42788415059609
H         2.22732576293643   13.56290936719695   -0.61122745343063
C         1.67303043035947   15.15852037984396    0.68787671518906
H         0.89781388008581   15.42570588227789    1.40846940158090
H         1.61067566173309   15.86599279790077   -0.13973220531180
C         3.05466779670909   15.30560206145338    1.34019863721408
H         3.79743795931767   14.79936750690866    0.71802361002934
H         3.32242738221330   16.36261707960995    1.40120226990522
C         2.74839668687376   16.87685942862624    3.69541692689157
H         3.65845756474800   17.35769968536526    3.33694495579487
H         2.54257797090487   17.25110200309699    4.69353296613107
H         1.93373607128947   17.17467489098521    3.03863383215156
C         4.62231232947374   12.98610841252039    5.09645461808353
H         4.96939216828341   13.26219445292302    4.08807021859652
H         4.80863856707056   11.92467978874132    5.25251142051847
H         5.21801709731582   13.54063018464185    5.81679263064337
C         2.71425825196332   12.89402590325689    6.69670399838733
H         1.69271156010793   13.18721961423873    6.92279816570398
H         3.36449553116475   13.37296017978283    7.42323650509306
H         2.80547775920244   11.81814209311296    6.82634459272378
C         1.55391150740600   11.40837949163687    0.35662598829404
H         2.48359076473066   11.38226934036187   -0.21032564412660
H         0.71644343459733   11.29786301897532   -0.34363389692795
H         1.55233657511533   10.56290215149250    1.04038007626636
C         4.64374128259989   11.47095389291800    1.38759546036727
C         5.38660392336746   10.52750495990876    0.55140148909295
C         5.28590393851351    9.15723049113601    0.78801233145201
H         4.65564360340726    8.80787429775225    1.59213791940094
C         5.99202457489159    8.27263155159970   -0.00311880676014
H         5.91962515269751    7.21104775051429    0.17712586712672
C         6.79530102321805    8.74904925182818   -1.02890170397929
H         7.34652218898527    8.05477637378110   -1.64468404475151
C         6.89604267804365   10.11187837401332   -1.26737714137303
H         7.52373573035314   10.47528560217348   -2.06647872882082
C         6.19472602766057   11.00380102329240   -0.48006544165582
H         6.26117783705503   12.06894826265811   -0.64452067662125
O         4.69318484600707   12.72399632733461    1.20693483867913
O         3.89248987584249   11.08581745990451    2.33809354849013

