64
CSD_code = FEHGAB | q = 1 | S = 0 | Stoichiometry = C22H34N3NiO4(1+) | MND = 5
Ni       -0.19163719638499    9.12075098357144    2.25100665731828
N        -0.13635458878253    7.30901162323644    2.00440054656466
N         0.35402714652641    8.92560244062609    4.17113333742912
H         0.21214196600276    9.89677422026299    4.46584024406852
N         2.05455647959112    9.26382872232541    1.36040163464471
C        -0.40771962731964    6.41473992235081    2.87165895792857
C        -0.64938828268190    6.67048942277933    4.33335121913895
H         0.10520842745874    6.08124293968085    4.86509121588199
H        -1.61309668155189    6.21815661679826    4.58094067505001
C        -0.64523908913140    8.10726179096959    4.89175706273659
C         1.75025848139270    8.59311212125949    4.49976208130217
H         1.92368413497089    7.53915919686825    4.27276479254613
H         1.91210131356773    8.74624546125940    5.57207376675430
C         2.76829077009391    9.45204767372563    3.75113572450353
H         3.69479988618529    9.45322429279644    4.32728482302357
H         2.40768588484285   10.47974810198519    3.70349136612046
C         3.09083978694178    8.93821387034208    2.34952416217163
H         4.05596306316107    9.35715935322397    2.02578140285430
H         3.20591699027226    7.85402817666937    2.40169390641117
C         2.20680987330698    8.39452871682673    0.18285475276741
H         3.26547898360801    8.34381279207873   -0.11465855656386
H         1.64752139638485    8.85211945097151   -0.63538483206057
C         1.67356127268589    6.97519905819479    0.37194775232761
H         2.19189453544426    6.46211106144977    1.18404255990032
H         1.87330462865738    6.42391544259710   -0.54773834605279
C         0.16043922971979    6.94855561534349    0.62913062358238
H        -0.31150338969197    7.68963689781392   -0.01971579734404
H        -0.23870911130563    5.96298945446099    0.37989657402906
C        -0.47908179773168    4.94722366162567    2.54290729641875
H         0.44185805228162    4.60481566251941    2.07510320307959
H        -1.29892152088966    4.75319316336696    1.85247352573125
H        -0.64974958862611    4.35687636933663    3.43775604043060
C        -2.00714037762138    8.77827497189418    4.70632718936317
H        -2.24124527740411    8.89348818790755    3.64930933999318
H        -2.01128738537441    9.76026071167980    5.17514214489824
H        -2.79271309067417    8.18390653309322    5.16465071383516
C        -0.36556523889122    8.03924261483311    6.40179451428344
H         0.51920537854633    7.45539085429223    6.64000556087281
H        -1.21065150616560    7.57260989678606    6.90040160493849
H        -0.24890946223112    9.03867718497779    6.81432761385207
C         2.26087861891125   10.64842772300514    0.91570260459589
H         2.17212194765658   11.33187284317152    1.75644895814569
H         1.50498596996228   10.91488842307123    0.18060628155655
H         3.25273271290854   10.77329960110445    0.46218771167871
O        -0.73272527965118    9.91302439557158    0.48699087749131
O        -0.50836307142023   10.91727429566821    2.39450073701625
C        -1.14473495636023   10.76860883375119    1.30881324959190
C        -2.35810406884776   11.57757510838478    1.06128742437099
C        -3.48631476761177   11.05483217381293    0.43020077326398
C        -4.59497392593969   11.86370504483973    0.20716420345607
H        -5.45301624732333   11.43885619639542   -0.28914263040470
C        -4.58541234554972   13.18327377351033    0.61608582561765
H        -5.44775878410350   13.80451286169621    0.43194695044506
C        -3.47669580819002   13.70377329346640    1.26752727731555
H        -3.47298006952821   14.73106560457474    1.59587096560883
C        -2.37629836564234   12.90236903399785    1.49340315229157
H        -1.50173157589119   13.28709663771910    1.99554577072578
C        -3.12737938687355    8.66871853058717    0.55553176674252
C        -3.39889341657467    7.45485595038688   -0.28763153419909
H        -2.76701338528688    7.48605062267156   -1.17277953347109
H        -4.43389503717374    7.46236809901160   -0.61904020652125
H        -3.19332379835639    6.55366531428365    0.28113306362026
O        -3.59428860978579    9.75491714021909   -0.04423023544614
O        -2.58765081850673    8.63164326629978    1.64280949168849

