34
CSD_code = FEHJEK | q = 0 | S = 0 | Stoichiometry = C15H11BrFeN2O3S | MND = 6
C         9.10300678738261    1.49379223313508    2.69591801906009
C         7.75697914813859    1.87039563588613    2.72504914287608
H         7.11254718570223    1.62261368711171    1.89821956968915
C         7.30717471328909    2.58697375722775    3.81147253880808
H         6.29135730429728    2.94790712197889    3.84833681768255
C         8.16482907337265    2.79810540024973    4.88357385038612
H         7.82154135711859    3.31079175794497    5.76705383041955
C         9.48062408248610    2.35507740742595    4.80933563758874
C        10.31068687509518    2.32762950753110    6.02989909119484
C         9.67473187004055    1.92974648451870    7.20909232801658
H         8.61838776047158    1.70855143270138    7.18561139023239
C        10.37328810876812    1.77000580138967    8.38987850336310
H         9.85145193239321    1.45424388205951    9.28015451428383
C        11.73865931711825    1.99958730468970    8.42526082170445
H        12.29310488255966    1.86891894886199    9.34135638875205
C        12.38718737302169    2.40131587991874    7.27312269015403
H        13.44915839090577    2.59258654282924    7.27526290196610
C        11.68476810027640    2.56538453247720    6.08824123371583
C        11.81555055374678    4.73479625988020    4.42189022779023
H        12.31516670890020    5.20414644959747    3.58016958397419
H        11.94754588694343    5.32538538513419    5.32373735501071
H        10.76323624694764    4.60277179839018    4.18993041793825
C        11.01733677801079    0.47356250459707    1.70731629754452
C        12.06528047249546    0.09814330730171    3.96714078256692
C        13.44180755384174    1.16025741061357    2.38445990770940
N         9.96147773573859    1.80807350513619    3.67959738058143
N         9.64546416805982    0.75975390658918    1.69240621841497
H         9.06478449189613    0.39657494379688    0.94506874953725
S        12.62950013228582    3.12297066539672    4.67961774542905
O        11.49005139791522   -0.29006523939531    0.91110475042976
O        12.22269138358963   -0.89987422159341    4.50695153810384
O        14.44002195906056    0.81755226631363    1.95907869453454
Br       11.60684689235820    3.23468704242271    1.45932219412455
Fe       11.86085337577408    1.54753669788208    3.03916888641546

