70
CSD_code = FEHKAG | q = 0 | S = 0 | Stoichiometry = C39H21F3IrN3S3 | MND = 6
Ir        4.66342748359031    3.77589954118664    2.96030495290913
S         8.79396159495566    3.78087387810736    4.97940066402691
S         1.31713476858172    5.42637078709651    5.64552703566257
S         3.68399453551195   -0.25695896551737    0.98159994986432
F         3.43740488102159    4.21166415782652   10.18603161035146
C         7.11419342246498    3.57462380716388   -0.65272780988479
H         7.83861735492940    4.17463683471281   -1.18502302936345
N         3.83985632429881    1.76406736807255    2.58831537745067
C         5.59527879001025    5.55094366857248    3.18118565698927
C         5.27075649822528    2.05556543295764    0.70516463992779
C         5.60226187710668    3.32870985747447    1.23212855177736
C         7.62449732551237    6.59952307151210    4.10931930360891
H         8.57240150843116    6.48463607436682    4.61773795253017
C         2.30042736638549    1.08548875012916    4.39039982272509
H         2.48162791793018    1.97522252820275    4.96865529920670
C         4.31170016876546    1.30697253951011    1.45731971319081
C         6.84463677638741    5.47010848590603    3.84530582877137
C         6.54174132075631    4.06435660312036    0.50816388916132
H         6.82793417180704    5.04667271045086    0.85580857311903
C         6.76828561692185    2.32197913531787   -1.14773766464920
H         7.21989439233457    1.95141093292378   -2.05570142448755
C         3.54796564047464    4.19463595396382    6.08708743246526
C         5.84421903881271    1.56110652776222   -0.46959441119783
H         5.55667746346036    0.58305603348220   -0.83147349237915
C         2.72691857654718   -0.27342868635822    2.43212925219042
C         4.52703784725086    3.60423156769215    8.18924492452800
H         5.30647000841149    3.14713072196020    8.77744794461723
C         7.17541151688792    7.84140280806318    3.72364692570175
H         7.76721396923816    8.72214103102184    3.92298181949977
C         5.18331922204216    6.83102251678336    2.80732968486454
H         4.24298900254695    6.95516623960402    2.28951472106762
F         0.38455005008772   -1.97371128591571    4.55269314975998
C         5.95131302452895    7.95118981302063    3.07301747809962
H         5.59735369982452    8.92584406030602    2.76819894626004
C         2.95236000444188    0.90931357512334    3.17100068217409
C         2.47029002157537    4.79018777773050    6.77947754761866
C         4.57416683220033    3.59188207233463    6.81282373393106
H         5.38769119787325    3.11609931026613    6.29248448078756
N         3.43792970749801    4.26248166548129    4.73026210594492
C         2.41265816037067    4.80939693525441    8.16188359469143
H         1.59415118825461    5.26516081801911    8.69392701699592
C         3.45728390216292    4.21270382245735    8.83883903621253
C         3.04393753613740    4.56825559160949    2.05661648408537
C         2.34185420037984    4.86196446818074    4.34272982799676
C         2.75793834926135    4.71137617514695    0.69806492651939
H         3.48704624171265    4.39341031790660   -0.03339752515686
C         1.43933236604089    0.11106311993240    4.84433675835042
H         0.92089067717231    0.21951281693167    5.78341543916523
C         0.60267774470463    5.69668288942254    1.15998869623825
H        -0.32202224778303    6.12576660130283    0.80440036968537
C         0.84061400515328    5.57777850167224    2.50979254074131
H         0.10860995076783    5.90854239613902    3.23439007884767
N         6.47204805489602    3.12464723035267    4.04777533554726
C         7.25531625300307    4.15565327807902    4.23245787479214
C         2.04250199919434    5.01865375475722    2.95277700613487
C         1.56613906617516    5.25972170851779    0.25741201940867
H         1.38155322002273    5.35348193722825   -0.80339066279406
C         8.31569232029758    2.11138309681308    5.04217030469017
C         1.23206987445944   -1.03654689080684    4.08504029974178
C         1.86359582943179   -1.25870850721907    2.87778585163382
H         1.68751851089717   -2.16144320874594    2.31672002151892
F         9.06438421398197   -1.26934033373901    5.98318265669215
C         9.02391369629807    1.03597319266997    5.54880187420741
H        10.01098637755654    1.14675409559927    5.96607688792895
C         8.40650496449978   -0.19766627428537    5.49948999506811
C         7.12883521061692   -0.38079421746156    4.97945694311375
H         6.69879697105226   -1.36947384319314    4.98000276308394
C         7.02309339623973    1.96004774358372    4.49274514568170
C         6.43377954724387    0.69686016430974    4.47699023882597
H         5.43958750016856    0.57606371814491    4.08246638153060

