41
CSD_code = FEHLIO | q = 0 | S = 0 | Stoichiometry = C14H14BMnN6O3S2 | MND = 6
Mn        6.17870988544136    1.54435278427856    4.37355266786321
S         6.00105060822121    4.05794394761132    4.35407702278348
S         4.62674594985127    1.15068799332431    2.18867676784269
B         7.17832954871191    3.10471266430744    1.22381093567883
H         7.74438478049134    3.73750910594604    0.39152881717200
N         7.93694486490220    1.92923690880045    3.37422064693743
N         8.14455869943326    2.80437389711518    2.37395122483574
N         4.15194680539791    4.78374515063516    2.56867364962507
N         5.88516860757893    3.84811327164296    1.60763624465415
N         5.95916098944900   -0.28673095284005    0.35211546496003
N         6.79749079803195    1.72048103232147    0.62304716542238
O         6.26429964003833   -1.36645157669986    4.03523348964557
O         7.33360011067878    1.60546913688753    7.06831220906555
O         3.51572734188053    1.73764959731058    5.56759004155501
C         9.11569456071751    1.70439403677356    3.94939488448942
H         9.21076211525891    1.02011841251118    4.77367506350047
C        10.11000318975147    2.44876820681554    3.32163209798779
H        11.15157007616241    2.48547815343842    3.56395734236399
C         9.44728418340382    3.13003297975261    2.32730523579503
H         9.81499828442408    3.82026171257725    1.59584555687853
C         5.34523512643598    4.18657234651688    2.79143634801910
C         3.26551288809765    5.27555926451734    3.58305889917468
H         3.51373136441573    4.79124903382248    4.52824134412941
H         2.23579670621651    5.04626746476991    3.31203294572341
H         3.37909303591538    6.35509607105456    3.70394491577187
C         3.92997632492372    4.80751997669600    1.21931254283344
H         3.03859896925736    5.22367494224162    0.79828948280623
C         5.00120155376089    4.22831874899628    0.63193951613963
H         5.20939850702758    4.04747611205726   -0.40183592601382
C         5.85505305769830    0.86536491504347    1.05296358468304
C         5.13344372091538   -1.44653100637136    0.52698670171930
H         4.54986468426005   -1.31651638126315    1.43863651742851
H         5.75608426903436   -2.33664310318624    0.61560968236022
H         4.45184276943070   -1.56312649623467   -0.31780195741820
C         7.00351665272624   -0.15719274478777   -0.52434086624063
H         7.28636616745270   -0.94686038041092   -1.18876198536444
C         7.51941165915240    1.08177219312204   -0.34855239156175
H         8.34083375663925    1.56532309002202   -0.83429558590400
C         6.25030248906311   -0.22457953419114    4.20387055269985
C         6.91737974804661    1.57102477814389    5.99629574931113
C         4.56172550970645    1.60358424692684    5.11723340064363

