68
CSD_code = FEHPIT | q = 0 | S = 0 | Stoichiometry = C33H30ClFNPPd | MND = 4
Pd       12.31017028368162    0.31053367521489    6.32923547112260
Cl       10.83820146108062    0.88770072068097    8.11419850825198
N        13.55759697136609    1.86956549833779    6.67498675064629
C        13.84746682390827    2.58610298360928    5.58895058272802
C        14.58604736464493    3.75592985204066    5.69120128326034
H        14.80877868861457    4.34302725886798    4.81539175285065
C        15.03171633791057    4.15798407103726    6.94210745353648
H        15.59394735586173    5.07379140887316    7.04901755328009
C        14.78087080847287    3.36085633973659    8.04485188795508
H        15.16295412986335    3.61865818523460    9.01976411395754
C        14.04197172926127    2.19281280253400    7.87360420625493
C        13.80579501833619    1.22607365161607    8.95905427176676
C        13.94804280061220   -0.14251594634411    8.69161602903033
H        14.31233631148392   -0.48567024571551    7.71602596048798
C        13.70839226765337   -1.07359344122065    9.68599746046401
H        13.81988649690459   -2.13122751585078    9.50415280636623
C        13.30015761447566   -0.62731531553172   10.93109266792504
F        13.04863832294807   -1.53570063491784   11.89665481143205
C        13.16266446722172    0.71702795659210   11.22218473444104
H        12.83795861032209    1.02428525966794   12.20348902711309
C        13.42839047419543    1.64314334285514   10.23111560771121
H        13.29458105881420    2.69520042832178   10.43151030131459
C        13.30866661243915    1.96710050832513    4.31956306587613
C        14.12959731354606    2.34495928390258    3.08219174051102
H        15.18302106263481    2.12024875349697    3.23807445315172
H        14.02785264591530    3.40178276158126    2.84327227609022
H        13.77990125507214    1.77029979992051    2.22736280470888
C        11.85562390804791    2.45202684419362    4.14784535932414
H        11.28949593051348    2.28341101652621    5.07824761610809
H        11.37817417258321    1.91071215223161    3.33141725350699
H        11.83172483504354    3.51820411371245    3.92374412369805
C        13.32713029426325    0.44035720807605    4.54908538110636
H        12.86583185716388   -0.06562930628688    3.69244885722061
H        14.36641527014603    0.09386445357182    4.62777800514872
P        11.16350732389850   -1.56230162753593    5.94757575990669
C        11.28935449701669   -2.85391488288346    7.22916272816356
C        11.06690493101160   -2.46363805173355    8.54820203804062
H        10.85903441771485   -1.42348347946270    8.76418204778835
C        11.11182256270973   -3.39836306512501    9.56649676142267
H        10.94263646698274   -3.08893883862487   10.58700599749492
C        11.38220483523723   -4.72668254567003    9.27901555968779
H        11.42203608021606   -5.45636094703381   10.07454735969254
C        11.60055444130202   -5.11897025353601    7.96855869866099
H        11.80590197726651   -6.15522005017015    7.74038326428292
C        11.55302839204211   -4.19025373092619    6.94335886719755
H        11.71823688927548   -4.50837237846987    5.92357489979782
C        11.56752110151455   -2.48294412837560    4.42840309704064
C        12.90084007026083   -2.85317654158809    4.26298084146829
H        13.61266652609326   -2.59115120280314    5.03816194618562
C        13.30221062734230   -3.53624259689526    3.13249900434635
H        14.33590336768993   -3.82608967487078    3.01162308179411
C        12.37463227975685   -3.84431185500792    2.14801430039775
H        12.68639703500119   -4.37416925457025    1.25997959667724
C        11.05158683999019   -3.46716094707942    2.30083629101793
H        10.33102760356994   -3.70247223551942    1.53101783651307
C        10.64467638601829   -2.78774009586639    3.43755954164871
H         9.61107878823250   -2.49368402944940    3.55471333388866
C         9.37182769918466   -1.30174306406612    5.82723788249062
C         8.43814919876641   -2.28437368523670    6.13609241812627
H         8.76966946304669   -3.25696529131014    6.47319123897811
C         7.08820577021682   -2.00574096578803    6.01902417620215
H         6.36034769677499   -2.76553155587817    6.26470354706854
C         6.66759996414534   -0.75480140539287    5.59635885881677
H         5.61165589239682   -0.54187488465261    5.51498306430496
C         7.59686252243719    0.22608154651715    5.28831764038657
H         7.26628891217699    1.20348729519618    4.96859002113648
C         8.94661388065161   -0.04708591007458    5.40480207916982
H         9.69521500497727    0.71228240892461    5.19161204164211

