34
CSD_code = FEHPAL | q = 0 | S = 0 | Stoichiometry = C15H15ClFNPd | MND = 3
Pd        1.08698873725569   16.54904240146422    4.69334080840563
Cl       -0.49774552466929   18.02409970081167    4.21225452321000
N         2.46771015236961   15.22449330336149    5.12289209385624
C         2.16928237449727   13.92664499451357    5.17759426440233
C         3.13224900213661   13.00972364429339    5.57389857317432
H         2.90946775894493   11.95838987643735    5.63329148482238
C         4.40422565913812   13.46657526173725    5.89859739347286
H         5.16086441786646   12.76538250858062    6.21636113184754
C         4.70031934330088   14.81219720558386    5.79824880658650
H         5.68804896943601   15.17603762499341    6.02736403062649
C         3.69791203629884   15.69354484668771    5.39578997925132
C         3.82036316225865   17.13051644684937    5.18849574326165
C         2.64292004297775   17.78206007179256    4.74584448392835
C         2.68327998417815   19.14466184452878    4.48979341143951
H         1.80755273531443   19.68227317928607    4.15161092306523
C         3.87426308358932   19.82985072498867    4.67224954697356
F         3.91207746436681   21.15281130105299    4.41799811611593
C         5.03251617585924   19.20840989959722    5.10976121164032
H         5.93350281235190   19.78618400495693    5.24194009108901
C         5.00020590300284   17.85291424984722    5.36648628497682
H         5.89691381486100   17.35803122155676    5.70758754148652
C         0.76214823526841   13.56459321737633    4.71424203948626
C         0.72892506936791   13.74455990870159    3.18338106595551
H         0.97642969631813   14.78693776106874    2.90646543159275
H        -0.26419770085720   13.51218361322148    2.80364781230516
H         1.44697308041895   13.08209212575895    2.70299780795935
C         0.39199312212485   12.12206851815546    5.06761853956663
H         0.46040332748843   11.95632295155999    6.14046777984141
H         1.03981462826796   11.41383853593905    4.55758225264012
H        -0.62966438442847   11.91843327877690    4.75532004849925
C        -0.27174300091917   14.52246998843717    5.34646391004366
H        -0.08214611515043   14.65697179301053    6.41968042935178
H        -1.27269838990087   14.10363832882377    5.23475568247247
H        -0.29655567333611   15.51974566625130    4.82257675665705

