47
CSD_code = FEHPEP | q = 0 | S = 0 | Stoichiometry = C20H22FNO2Pd | MND = 4
Pd        9.31059899374451    7.40102183073048    4.73679776189661
N         8.31672566887470    5.80587030290208    4.31619554107096
C         8.55256265533982    5.28567649985056    3.10393590447002
C         7.82982821937116    4.19286520053122    2.65132184443684
H         8.01175662929393    3.78682450863898    1.66986378227164
C         6.86903538110805    3.62701049156820    3.47803358273662
H         6.28577715630985    2.78426625069058    3.13920987537033
C         6.68934800646355    4.13537185705146    4.75327399239817
H         5.98961667114879    3.68498824707528    5.43941965252032
C         7.44756513720354    5.23000040076689    5.15432388168768
C         7.36748149121061    5.80729025445456    6.50885246557949
C         8.54994338695383    6.14435393118444    7.18548134472620
H         9.52600964043015    5.85884780088851    6.77846968155706
C         8.48931315558045    6.77268828390683    8.41772476031296
H         9.38572435456003    7.04664917565817    8.95221454507415
F         7.18642356239546    7.69836276001469   10.14804807553905
C         7.24847795924232    7.06162066409369    8.95958375851561
C         6.07052293399737    6.70504414001802    8.33020789129132
H         5.12378914642169    6.93982516409599    8.79052472722430
C         6.13789346562665    6.07275078681981    7.10176057013069
H         5.22738011037303    5.82081809950969    6.57933198966422
C         9.67257706542429    5.98980984196660    2.37252192115154
C         9.08623118986340    7.21202238955302    1.63677301746326
H         8.63974704876190    7.91296652602500    2.36429120266073
H         8.32407585133843    6.90322033179594    0.92218656284636
H         9.88052993149675    7.72822192980202    1.10152975018465
C        10.38374741935588    5.07845561343688    1.36676952448783
H        10.69132442662494    4.14939756517926    1.84191559890150
H        11.27182960876973    5.58086981158752    0.99124020544755
H         9.74330352537893    4.84456499441488    0.51886926890000
C        10.63096990532411    6.47962683630362    3.48070994516519
H        11.38641741725190    7.15157846626178    3.05740964554388
H        11.14161795650928    5.62051460819111    3.93778309281626
C        11.36215942630351   10.89451942302633    6.24884450921791
H        12.28810165760261   10.49970388137834    5.83873249874405
H        11.46646475047548   11.03274454477884    7.32212053159465
H        11.15657295596218   11.86302787259641    5.79722467603180
C        10.22245498544095    9.93548228556299    5.94772449031831
O        10.50398188808281    8.97596314555560    5.17946863966935
C         8.99264188639419   10.23937006157534    6.53571855004071
H         8.95703065763006   11.11291969582568    7.16940406161465
C         7.79231434781305    9.54415633187130    6.34490359134534
O         7.63240166277306    8.51042837149416    5.65225643285190
C         6.56751672041334   10.10762746822901    7.04418903830816
H         5.69488281958119    9.51065080051341    6.79089536123611
H         6.40228570294788   11.13927629632361    6.74223818220696
H         6.71734546687064   10.08783425629434    8.12160407276916

