74
CSD_code = FEHRIV | q = 0 | S = 0 | Stoichiometry = C31H21ClF18N2Ru | MND = 9
Ru        8.38856504269611    9.79173260500164   20.31620436320246
Cl        7.83817288365654    7.86732007146639   19.16997324851137
C         5.73381269406823   10.15769646759044   21.10726156786320
C         5.26601024833902   11.24245356634799   21.85098644208846
H         5.72156363702658   11.48850286995492   22.79932429501109
C         4.22315749484532   12.01379397619288   21.35993098625803
C         3.81133684092284   13.21874288127083   22.16499391224136
F         4.87399839202283   14.02547650464167   22.37981047914028
F         3.33770615393034   12.89572437684879   23.37275866465663
F         2.88420691357959   13.96602735080892   21.56305670914879
C         3.61257183385580   11.71761702503530   20.15141108981009
H         2.79895891243384   12.32131025723073   19.78044603926825
C         4.07267837612778   10.62169458612717   19.43027776442373
C         3.47652010656703   10.32041994925523   18.07889768660212
F         2.23343859002186   10.78860627306575   17.93965351998149
F         3.44668026338202    9.01831852252456   17.79704282874206
F         4.21147869804155   10.90456058025041   17.10411895708532
C         5.12558603953777    9.84677560022103   19.88597239804269
H         5.48139733031737    8.99529965335918   19.31831741034404
N         6.84453247105910    9.42358742701311   21.52372921231061
C         6.82110915565393    8.60535144165818   22.55626240639457
C         5.51130093791170    8.41865064214665   23.31206637236490
F         4.44261123937782    8.36335664715518   22.50480596828030
F         5.28865393340691    9.44315392542037   24.16110974281709
F         5.48639053505522    7.31137524118406   24.04995605664319
C         7.91174797426695    7.88211318782529   23.03673595633796
H         7.73997829265276    7.21264347985663   23.86239310627196
C         9.19906523015117    7.93259725107839   22.50668299156982
C        10.23431603378646    7.05934339573507   23.20501748391887
F        11.13531447811146    6.53482739591507   22.36349012778880
F         9.68970602633323    6.03701634966755   23.86178205671191
F        10.93426447401292    7.76370722499557   24.11807979862529
N         9.56843477933047    8.66314565728779   21.47307167713701
C        10.88608928837679    8.76683708302094   21.03649954898536
C        11.86922430422056    9.37714061891542   21.82022636173018
H        11.63710319376584    9.72442304768544   22.81639786031462
C        13.14414388907890    9.55479584838825   21.30495495036800
C        14.14353046197230   10.29582157176796   22.15455327594558
F        14.25103609562479    9.78930569354639   23.38648774488032
F        15.36897801361686   10.32566974811015   21.62845184367901
F        13.76206139060491   11.58403813969307   22.30984068213089
C        13.47561800706982    9.13085450017655   20.02658499969927
H        14.47089053071095    9.27660985662739   19.63681917801673
C        12.49553917896395    8.50705450523611   19.26468962852416
C        12.79150771276553    8.07420319206172   17.85156568691416
F        14.09401329335156    8.08754831711962   17.55778432090002
F        12.19569760088046    8.90934311361643   16.96981806586644
F        12.33418204702275    6.85101760031634   17.57713211103083
C        11.21206812311712    8.32190466054830   19.75007500095676
H        10.45687884441237    7.82057842624408   19.15538837027912
C         9.39720006089637   12.12649542982039   20.62232142549890
C         9.97186110757835   12.65490176159740   21.91345848948260
H        11.02035314364950   12.34298136040848   21.97285063333749
C         9.92734579888990   14.18450500665119   21.95134349750203
H         8.90325081572278   14.54766267085050   21.91524125753589
H        10.47369233533358   14.60214355505068   21.10908215850959
H        10.38593096198107   14.54093333652133   22.86944993773013
C         9.21466599671542   12.05548021486976   23.10417416191395
H         8.23186068150246   12.51031643917807   23.20387255418612
H         9.76269030992685   12.23182027091496   24.02573700074697
H         9.08739788889160   10.97624607779830   22.97350983012764
C        10.21624829421646   11.45955882895523   19.68194096078530
H        11.28536506356762   11.41784942561857   19.85748667777799
C         9.69587128658229   10.94263078000180   18.49741348277104
H        10.35466301162486   10.49666878290193   17.76167586744409
C         8.31802463160625   11.07979879367452   18.19366658541983
C         7.77346604683671   10.54920610526079   16.90723013719132
H         6.79914906656924   10.97532136762397   16.68324497642761
H         7.66590784225708    9.46414415080787   16.98022311187065
H         8.45866892080394   10.75743146942257   16.08809379332636
C         7.51964712897778   11.81203807844851   19.08891212605424
H         6.50162138971416   12.05815518522182   18.81156782279403
C         8.04894172452843   12.31466973702161   20.29028122966904
H         7.41734850359303   12.91925286418140   20.92943133207711

