61
CSD_code = FEHRAN | q = 1 | S = 0 | Stoichiometry = C27H31N2Ru(1+) | MND = 8
Ru       18.72746796216352   10.56438524473641   10.33225080422864
N        18.14566053062227    9.95382768055050    8.59372243992829
N        18.57524090469274    8.73209249842370   10.92604734014921
C        18.07488023609551   11.03779224237767    7.68630243801023
C        16.89271986583719   11.76094369893150    7.56378057514694
H        16.03488540632421   11.47016832604036    8.15609874329620
C        16.82381511523920   12.84260824327359    6.69623276265139
C        17.94957691278249   13.17846792824844    5.95391019613010
H        17.90062317701033   14.01775455588125    5.27623798175401
C        19.13429866460199   12.45972134873420    6.05593575287078
C        19.18888705040326   11.37970810441389    6.92686160001594
H        20.09446852566836   10.79612091531883    7.02944313655736
C        15.56064494968780   13.63053605283823    6.54964543257829
H        14.82861698934109   13.34682892321928    7.30100171483445
H        15.12705027790794   13.45736734546633    5.56553609205680
H        15.76137042467714   14.69668196969146    6.63537678903958
C        20.32171808980493   12.83876538752175    5.22870918060589
H        20.14607333272153   12.57488626797176    4.18597724591473
H        21.21803500130870   12.32349893258351    5.56477274348445
H        20.49243298628608   13.91287556049082    5.27046129937353
C        17.81878194307189    8.74809611603543    8.13368722380932
C        17.40143456643379    8.59176515234977    6.70066975095782
H        16.53048145215951    9.21087635050768    6.49062917196018
H        17.16036059923206    7.55745581041160    6.47887949829072
H        18.20048082078113    8.91853023844437    6.03673719009660
C        17.85241039326037    7.61940366107597    8.95040798994238
H        17.57399537135951    6.67641181411449    8.50772274627174
C        18.21560233454274    7.61583740111976   10.29579739669490
C        18.19692466703380    6.31641246465024   11.04636582029553
H        19.19066135492454    6.08628628862423   11.42794199891669
H        17.86936887900875    5.50453917952808   10.40559572306442
H        17.52745266968590    6.38371497943180   11.90265645198279
C        18.92045341536709    8.62276285277955   12.29441379266713
C        17.93848521471703    8.77661153993556   13.26776442944059
H        16.91805215238828    8.96360417216474   12.95935453953610
C        18.27100249893859    8.69443237802547   14.61310793846528
C        19.59341434105697    8.44846055802996   14.96197346465975
H        19.85704787167587    8.37982199043613   16.00687344145385
C        20.58445586089573    8.28224289955896   14.00227960729866
C        20.23778950524359    8.36706272469218   12.66043786481440
H        20.98366786080368    8.24033423206344   11.88669844066468
C        17.22777697098910    8.85551679347156   15.67308481450840
H        16.28437678669000    9.19098274827191   15.25074121488305
H        17.55324207643970    9.57094190875854   16.42580625609343
H        17.05948522451956    7.90448016573735   16.17668482208282
C        21.99527881661274    8.00433181432986   14.41490524812332
H        22.67398588186114    8.06601928877952   13.56848111998438
H        22.06750033476655    7.00402035277901   14.83997948201770
H        22.31725886931267    8.70848377666401   15.17950817240574
C        17.84742229745773   12.32719061419121   11.41185326542796
H        16.83071280572746   12.55863287236639   11.71559379629027
C        18.74206801226030   11.73995722132674   12.34107016031180
H        18.40343762229103   11.50151119691511   13.34195007002123
C        20.07004824996778   11.50910824304597   11.98172820352490
H        20.76089634501545   11.09136239976276   12.70395015740588
C        20.52634635989397   11.86200879799745   10.68715182995153
H        21.57445397516384   11.73506401529544   10.43234447136085
C        19.68565935404336   12.62890713671845    9.84231408397232
H        20.08354158601421   13.06483853923324    8.93401989922660
C        18.35766839794305   12.85959373078551   10.20157177358985
H        17.72604985709447   13.47425435261173    9.57186240869478

