60
CSD_code = FEHTUH | q = 0 | S = 0 | Stoichiometry = C29H27FeO2P | MND = 8
Fe        4.72206623847848    6.65327734248810    2.71744163945941
P         2.89512087810906    6.86666739173663    1.57855421017488
C         5.01108605758572    8.52230748209713    2.63951334742231
O         4.17345751951174    9.15536096762029    3.23555431554466
C         6.25909797245694    9.14096834065669    2.05274518570498
C         6.32401641214161   10.63523720432837    2.26648274961990
C         5.61304615899002   11.54306221395015    1.31091624482010
C         7.11088014824763   11.48595184531238    1.31653214484908
C         5.68917623237598    6.35356075769763    1.31691971270188
O         6.35657832900101    6.06229377055307    0.42155201578917
C         5.26818896886303    6.77136872417384    4.96188970349780
C         6.12201381479469    5.89943677286748    4.24111095068267
C         5.34360095002448    4.79661290758495    3.78966244913930
C         4.00824024592602    5.05494313964402    4.11802510575028
C         3.96307496019773    6.28963164582755    4.84038533263774
C         2.57183206611178    5.56684994704069    0.33645990214385
C         1.64855165818942    5.74084008693642   -0.69065860566428
C         1.43225429829494    4.72526452066436   -1.60370280609503
C         2.13115898129035    3.53276968185118   -1.49779380274481
C         3.04919453451949    3.35450348153500   -0.47587432754974
C         3.26925708932687    4.36930844073015    0.43801126344809
C         1.35103373936957    6.86147282750993    2.55255858586148
C         0.36547798117016    5.89078858201679    2.41485005749461
C        -0.74827310592500    5.91484794653584    3.23733865057769
C        -0.88291870894736    6.89768342489632    4.20300333635909
C         0.10608657722702    7.85763677927743    4.35543157291836
C         1.22285913869931    7.83671579857338    3.54163119570274
C         2.71172661868437    8.34833359415395    0.52600358881435
C         3.65991009582673    8.48210127165911   -0.48725097614647
C         3.64203959806368    9.58096115429424   -1.32326767952076
C         2.68123771657830   10.56620413843040   -1.14847552347140
C         1.74048751673334   10.44051790984531   -0.14164089573666
C         1.75044954725198    9.33588232597183    0.69406518182223
H         6.27532087022197    8.90957275387179    0.98666714459881
H         7.11778890413499    8.63983348432208    2.50775199486166
H         6.32147331705997   10.92145127607788    3.31066637103599
H         5.08607038508464   11.09108731895161    0.48400141121509
H         5.12805536787768   12.42454794350729    1.70095804915840
H         7.65868640147807   12.32930694385593    1.70904331435141
H         7.60313530243103   10.99642249218191    0.48959757726881
H         5.57437010543065    7.65015713466847    5.50369117766538
H         7.20006546346939    5.94124452783103    4.23563131591964
H         5.73137342664315    3.90607394845471    3.32337979382748
H         3.17321854403838    4.38410818453882    3.98666303476209
H         3.08925621502572    6.69108423779926    5.32470482621817
H         1.10479188415924    6.67275176304615   -0.76909767348371
H         0.71728300748873    4.86307422772883   -2.40183300292188
H         1.96118341155871    2.74340629043479   -2.21510262242991
H         3.59568432813943    2.42629496004851   -0.39539655855318
H         3.99034546608635    4.25422152142334    1.23659672467764
H         0.46646399600440    5.11600350008168    1.66783919946761
H        -1.51267387320471    5.15948790239446    3.12433575224281
H        -1.75378275715799    6.91127359616199    4.84197584865366
H         0.00773011361766    8.61887462413153    5.11596281340778
H         2.01217417083183    8.56519267021105    3.66512761340866
H         4.40667719390949    7.70823231678991   -0.61000537470899
H         4.37782796748520    9.67554100775008   -2.10898343072803
H         2.67044904750654   11.43097547025326   -1.79540578128335
H         0.99239184760636   11.20757096764537   -0.00374331385988
H         1.00872966389602    9.24574651738154    1.47389996922149

