37
CSD_code = FEHXIB | q = 0 | S = 0 | Stoichiometry = C16H12Cl4I2N2Zn | MND = 4
I         1.72456118816135    5.34295037167336    5.21397775262347
I         5.60062403683412    2.96262958192928    6.66017286079605
Zn        3.26282027120990    3.91311157152595    6.62757233419815
Cl        2.21711736926515    1.44440482111411    5.64488175527495
Cl       -2.08619178920233    3.44522012920988    8.24987237020424
Cl        7.15964724805461    5.87494130932552    9.45783399678657
Cl        2.20097374300255    7.97267225192287    9.67554067419204
N         1.98601326548264    2.99673569455875    8.15323389510315
N         3.55790320361177    5.23043642373822    8.43003661694005
C         2.59153482391865    3.25550830467883    9.42782785822519
C         0.77232171202940    2.63761653007219    8.10288112805342
C         0.01969107845675    2.42892509615258    6.87620060459586
C         0.57083647724825    1.91076907032632    5.69648443624340
C        -0.19370543308622    1.73931138191145    4.55463121035652
C        -1.52841198228947    2.10214989127570    4.56058848891064
C        -2.10696310212879    2.61697360760480    5.70723594602946
C        -1.34209554159557    2.76728349105795    6.85028101058376
C         2.80744402268047    4.76840426537670    9.56295740243031
C         4.38225739054852    6.18106964982114    8.51280390941517
C         4.71685704066025    6.98275349516158    9.70413113435791
C         6.01823317684783    6.93177549454884   10.21104403483576
C         6.38294788233171    7.68423113909583   11.31562602336375
C         5.44770326581636    8.50905527000157   11.91721781986534
C         4.15624777570059    8.58873839906270   11.42595848399522
C         3.79692333171020    7.82674562399805   10.32539604727228
H         3.56195949944022    2.75193074104753    9.45102717382044
H         1.97251277297043    2.89929043352094   10.26128350601454
H         0.20014449800070    2.49781577476406    9.02614726995355
H         0.26556477176221    1.34169830785604    3.66395050758202
H        -2.11918484278411    1.98820442116125    3.66586022060784
H        -3.14461962538933    2.90954301575911    5.71754142143472
H         1.82975693513168    5.26428305243917    9.54619353223976
H         3.30103279493523    4.99804260396537   10.51490741101087
H         4.93970919268716    6.42858489889133    7.61316467297765
H         7.39053630508198    7.62218979876426   11.69319336858996
H         5.72903717699678    9.10039725567224   12.77438077910389
H         3.42856006595412    9.23840683094060   11.88486234190175

