32
CSD_code = FEJBIF | q = 0 | S = 0 | Stoichiometry = C16H10NO4Re | MND = 6
Re        1.54692842824724   10.52240859820148    1.29011272633992
N         2.86265951723659   10.99382948318530    3.07341568095575
C         2.30081097699873   10.76039242243393    4.28209136667493
C         2.80022106335313   11.41246125851854    5.42739752328399
C         3.97450482972263   12.14179953584365    5.30448916309828
H         4.38331337831491   12.63723577294837    6.17331650934992
C         4.61144512367627   12.24869751798281    4.08064798577660
H         5.53829827248873   12.78738158169882    3.97109870552262
C         3.98840402878981   11.69639423791771    2.98051609295287
H         4.40810881897275   11.82363707978587    1.99100749264925
C         1.15009105961938    9.84922143924325    4.25851730845660
C         0.49519188726675    9.67205098215104    3.01756721152908
C        -0.63570251424188    8.85767219036486    3.00305218845338
H        -1.17789171906733    8.71906234746275    2.07632235885561
C        -1.08374239586666    8.20397241158662    4.13850215034260
H        -1.96873183222611    7.58590960854906    4.09068357616400
C        -0.36763590561617    8.30378584414666    5.31903475205142
H        -0.66974066318436    7.74265271651772    6.19123600952324
C         0.74309601344440    9.12015766825804    5.37877278149829
H         1.32256131499318    9.14157027134435    6.28645518209116
C         2.09732420964986   11.43986905133690    6.74995439338052
H         2.44564326979357   10.63701655476181    7.39968638884927
H         1.02112111909019   11.34936980696403    6.62722035733013
H         2.31521518739159   12.38155326036010    7.25165683999466
C         0.21081787704389   10.05582867424303   -0.06471096696591
O        -0.60277790719147    9.76031707211998   -0.81671125569653
C         2.79186659963775   11.32249945325321   -0.02179918744103
O         3.52453024921061   11.79218214107658   -0.76372557896953
C         2.32498169456683    8.71615349693459    1.30195027477507
O         2.70427181963700    7.65288192361172    1.46284024355449
C         0.60735596055347   12.17465340191128    1.78726048954965
O         0.03356023769517   13.06078219528488    2.22194123607184

