71
CSD_code = FEJCUT | q = 0 | S = 0 | Stoichiometry = C23H42N2OPtSi2 | MND = 5
Pt        3.69703396814665    1.14925544086655    2.02702997192256
N         0.96195156817246    2.18291899184576    1.03029826170828
C         2.29370984438288    2.21274164312321    0.84032762346872
N         2.49744855882785    3.03814996173633   -0.20210173286992
C         1.30217752803928    3.52285500830275   -0.66375275822308
C         0.33362217868079    2.98322919797696    0.11413777892876
C         0.34648900805034    1.39756277139154    2.07480198976216
C        -0.39541580053868    2.28153999624610    3.07725145367589
C        -0.95220446218047    1.42027033146265    4.20664525406855
C        -1.88300434707399    0.34644579707660    3.65048732514913
C        -1.15012297798253   -0.52171278605789    2.63159377317416
C        -0.59224076950356    0.33674046407373    1.50047954687821
C         3.81501337327299    3.33118819465439   -0.71553023723700
C         4.14665486464443    4.81838994332629   -0.58891634643706
C         5.56769747947047    5.07771895689074   -1.08023610025908
C         5.72754147903860    4.61520638110156   -2.52556402073990
C         5.38534913022519    3.13370465310765   -2.65399895550133
C         3.96489738620127    2.86706135041582   -2.16478820371665
C         3.87270138742690    2.68729757464642    3.42287602971566
C         4.71857304823885    1.62315804727766    3.82730800545074
Si        6.42329558230533   -0.66844275427503    1.65734464767103
C         7.53073883935429    1.68940417952563    5.22351118980825
C         7.09708911841839    3.10704985681192    2.45662800715938
O         7.07161504971764    0.25515784746182    2.84985836442179
Si        6.58701997829119    1.64621324047490    3.57472411593520
C         7.28530078755953   -2.35345703037893    1.82331435768548
C         6.83899092517241    0.15224076240672   -0.01558390197739
C         4.55559256141199   -0.78702246947043    1.88669070984393
C         3.63633429210459   -0.55770489455475    0.83141538545227
H         1.22422260651380    4.19880483166759   -1.48982474372937
H        -0.72832812015642    3.11128532421357    0.07834050127646
H         1.18788934997965    0.89623887055912    2.58877246982629
H        -1.21454711111779    2.80225811432341    2.57516754837188
H         0.28988585155789    3.03218958527774    3.47562337354657
H        -0.12410545783258    0.94441471663942    4.73559580498654
H        -1.48969831645249    2.04830500331630    4.91945239070136
H        -2.74168838047576    0.82291846894716    3.17108183153447
H        -2.25899661306416   -0.27562923360430    4.46451931817679
H        -1.82876164733140   -1.27335547768157    2.22427349222310
H        -0.32739197334842   -1.04341387371929    3.12441968977540
H        -0.04567630675051   -0.28403841614947    0.78790602793423
H        -1.41475381405582    0.82073013648179    0.96810258825488
H         4.50157964635437    2.75207364634406   -0.07589184028186
H         4.04502804579785    5.12398484348599    0.45433729560168
H         3.44203109699400    5.40398464534090   -1.18459348801948
H         5.79516311679742    6.14231945800580   -1.00111637684395
H         6.27345487702202    4.53747861201026   -0.44622036751194
H         5.06506973151234    5.19894632291738   -3.16955145550209
H         6.75250235895955    4.78799162786157   -2.85792080838761
H         6.08814173360423    2.54605874017267   -2.06040511333300
H         5.48065926814477    2.81708819920074   -3.69425013220260
H         3.25416695212227    3.40472666489281   -2.79732589154752
H         3.73681112131282    1.80121174593918   -2.22834336895371
H         4.32527591593659    3.59427833530055    3.02539385391986
H         2.96821789153263    2.88472859773702    4.00147531924575
H         4.34561898855997    0.99748466034754    4.64048671780307
H         8.60066371086759    1.64752155124782    5.05354195654231
H         7.26481292961729    0.84819113098083    5.85397387138624
H         7.31460789044516    2.59951516692376    5.77184545745334
H         8.13271959437034    3.01074364038538    2.14588600614032
H         6.99013451562765    4.05811385431897    2.96798603876253
H         6.48416555379621    3.13988320108170    1.56032456968404
H         8.36040676963736   -2.24311451813457    1.73766262042217
H         6.95623842165825   -3.03669260746017    1.04839579960681
H         7.07713043637743   -2.81175064950501    2.78366778533212
H         7.89019933951573    0.41872919892430   -0.06435764825515
H         6.25991086471212    1.06205055614546   -0.14799039260496
H         6.62246414667527   -0.50529108166506   -0.85115348333079
H         4.20176490807654   -1.41615411516957    2.70534685980808
H         4.02154160009335   -0.40361560326592   -0.17510656356547
H         2.68401892653588   -1.09145453210095    0.84272095084259

