68
CSD_code = FEJDIH | q = 0 | S = 0 | Stoichiometry = C19H35B10PPtSe2 | MND = 7
Pt        7.82208261696333   11.04284306697898   -0.34768129678860
Se        8.91064897906930   13.44171448474068   -0.16634655278905
Se       10.03806098239660    9.97467010729216   -2.32134142604536
P         8.53350219104000   10.74049807778017    1.81255869869886
C         7.12202980504254   11.32290324484838   -2.47504572699576
H         7.57172913035554   12.24708175227588   -2.83809616844606
B         8.04793774516870    9.94985221930992   -2.28054948305855
B         7.29210376744335    8.89090472534436   -0.95257284954764
H         7.98868047779273    8.17355718627284   -0.32190580882920
B         5.91965256647178    9.78761076163438   -0.37127595330496
H         5.51986681641887    9.77554001373101    0.73976433882336
B         5.87474056139827   11.37892800998287   -1.36745995251593
H         5.56335472322791   12.41389125941580   -0.88859904694019
B         5.55735435568935   10.98027019070177   -3.05261907460569
H         5.03419580274897   11.79811829753578   -3.71713237756906
B         6.92376196468197   10.08071231484455   -3.63446076620081
H         7.36710636511646   10.24885516168231   -4.71202054182800
B         7.06869684220113    8.56689739828407   -2.68378068517156
H         7.56535645656399    7.60465247722147   -3.14987211312907
B         5.68227608560513    8.49970979616488   -1.55867337960377
H         5.16169331639130    7.49410228342621   -1.23796624834143
B         4.80135334015160   10.05750276768438   -1.71851158716448
H         3.64985048474473   10.14571461867819   -1.48564545265424
B         5.45975260385098    9.20515342027291   -3.15975969193214
H         4.78163415235070    8.67860767995301   -3.96463140147539
C         8.16112554605798    9.10583917432186    2.58882937216248
H         7.09385799482093    8.92388838375592    2.45091159031358
H         8.68745069841230    8.35691065996238    1.99407905428691
C         8.53525711167353    8.95999056784273    4.05857476764717
H         8.34720443411373    7.93772472434210    4.38094535472931
H         7.94208788514445    9.61973166902749    4.68630871293534
H         9.58791532828092    9.17510377824138    4.22474224349346
C         7.82939240936300   11.98422455672497    2.97410992306617
H         8.14227458727912   11.75289019331069    3.99479334964645
H         8.26736839242315   12.94650456114078    2.69497688568536
C         6.31229285546535   12.05803842096632    2.86569074299375
H         5.92212112296231   12.84876821858554    3.50337190015708
H         5.85023389805855   11.11882877662173    3.16189128544219
H         6.02499578577868   12.26900807328811    1.83588293023159
C        10.33852218117848   10.98980649123808    2.10470459389008
H        10.58978303029112   11.95312189895545    1.64913497682714
H        10.51516369722346   11.07438083500143    3.18049993850501
C        11.19859072293984    9.89059764819286    1.49652670306292
H        12.25266015888619   10.14187070239150    1.59185702270928
H        10.97156459839465    9.77359134542220    0.43747504014687
H        11.03066695604151    8.93733029492002    1.99200300754580
C        10.48080047413608   11.70879878679582   -3.07196278490086
C        10.00051339291979   12.08300027733950   -4.31739795557115
H         9.35345544359498   11.42048220247020   -4.87351471654995
C        10.35486524571403   13.31027445815113   -4.84949303334097
H         9.97109456613594   13.60403943653093   -5.81606179112413
C        11.19624435044153   14.15793652782254   -4.14664128755704
H        11.46594431773915   15.11758203757896   -4.56255778565206
C        11.68607865714301   13.77428858405394   -2.90935762607347
H        12.33725530207616   14.43341976459342   -2.35508914905076
C        11.33249301995255   12.55015764540089   -2.37067850701250
H        11.70571362248621   12.24898458864219   -1.40244952862246
C         7.64875203669749   14.48439372290171   -1.14939812881887
C         6.49995901839282   14.94924934137809   -0.52306446849400
H         6.33651706422165   14.72843864461957    0.52269749700517
C         5.57418080929481   15.68471273716639   -1.23714452544628
H         4.67859948163634   16.03908957831249   -0.74683121655259
C         5.79018234098228   15.96587876002429   -2.57658185088269
H         5.06181382100727   16.53562926656121   -3.13471920215355
C         6.94713788651265   15.52254659889510   -3.19480867529383
H         7.12815106366746   15.74901039077862   -4.23615540774318
C         7.87836002068287   14.78794375990089   -2.48453880250935
H         8.79043653688231   14.45490059976712   -2.96013590171802

