87
CSD_code = FEJFOS | q = 1 | S = 0 | Stoichiometry = C36H48AuN2(1+) | MND = 2
Au        4.90948884942333   10.13136160299621    9.48789277760036
N         7.22770967431625    9.91738282460347    7.79459700999136
C         6.04964764463296    9.41070205949906    7.96602585103879
C         3.86506985387925   10.90117692744096   10.91663935067908
N         3.23035334569863   11.43411703221336   11.72618126134164
C         3.87181393283637    7.18171591183625    8.14320620662896
H         3.54663789992537    6.20639610458238    8.51098950821332
H         3.92169967467964    7.85412391705167    9.00264557615367
C         7.76779612428676   10.91435700828518    8.66981905197524
C         9.44299374642847    9.03805955379180    7.05135492512659
H         9.94830276691780    9.90511906677617    7.47090204958630
H         9.98709422717667    8.72376533053069    6.16427261067824
H         9.47658110712886    8.22419363177986    7.76851623977627
C         7.55822500067210   12.27558021771262    8.40951984519975
C         8.01217963282001    9.38515200523395    6.65496274146041
C         8.07035983806060   10.40228862212213    5.51516079633878
H         8.60693770449993   11.29251351364808    5.82936673834995
H         7.07966611304499   10.68394399252460    5.16947121122034
H         8.60603769299592    9.96405555537872    4.67695454801237
C         8.48380020533705   10.49911553203775    9.80333917529714
C         7.18378211642378    8.15322047767858    6.28289499146346
H         7.64428016274619    7.26183920182706    6.71190678029026
H         7.14784301114323    8.02779698670624    5.20623731695951
C         3.35762969375110    9.03751015410720    6.55355457043744
H         2.65178237266797    9.39595653964742    5.80121184998858
H         3.40244931659987    9.78897339510915    7.34554754716745
C         6.62090330416394   12.78319205857224    7.33616578975469
H         6.25158519945909   11.93927710493888    6.74914287323416
C         5.24578237245916    7.02756130629801    7.49279460343392
H         5.95697521551107    6.65375956395079    8.23990427766051
C         5.78483186848867    8.35725122504445    6.91610213342886
C         2.86837936535400    7.70581438221687    7.12005680125660
H         1.89632567359631    7.85226467687524    7.60241868004336
C         5.40514436347131   13.45069475511312    7.98971589580809
H         4.71957369079808   13.80003130689780    7.22150032184874
H         5.70758332225396   14.30245821329910    8.59307381390243
H         4.87629247237810   12.74526570399819    8.63063239259108
C         5.11102552529035    6.00721320106802    6.35732392087976
H         6.07223876900171    5.82680452953959    5.87513437435695
H         4.77152607438844    5.05723316390435    6.77414523736130
C         7.72687661296665    8.86631026597573   11.51852412032421
H         6.68244525225234    9.11843771937176   11.33425706598846
H         8.09557555810018    9.49921049323862   12.32136971476392
H         7.77946282512021    7.83033021752538   11.84432879484268
C         4.72747815494272    8.85821966994285    5.89516996186357
H         5.05431590895754    9.81925005319772    5.48129543457461
C         8.56249312551306    9.05479088709866   10.24731296510986
H         8.12953678971881    8.41119525787956    9.47639828396307
C         2.16499485623737   11.37568527163385   13.84443137041776
C         1.28902195376775   13.99585564152278   13.37834246268007
H         0.94504131259243   15.00470755085819   13.21149223360605
C         0.95941803362270   13.33777617649675   14.55218088972347
H         0.35865125399110   13.83917444885381   15.29463938165133
C         2.64933603826041    9.97844087391287   14.06152854205980
H         2.31628513488033    9.60536556234570   15.02519536897469
H         3.73842980926117    9.93938250406610   14.03056321899595
H         2.27202594499288    9.31533070538029   13.28278518726505
C         1.39381369360272   12.04257650027140   14.78215259551177
H         1.13110708813931   11.54141642332509   15.70068219611009
C         8.96247773179923   12.81100714272601   10.29918002034892
H         9.45263723851183   13.54890899886779   10.91493417276428
C         2.48445657228552   12.06118668143169   12.66240883464844
C         8.18115543519871   13.20612213361354    9.23276115937012
H         8.04831285932474   14.25762600215185    9.03583689941259
C         2.73369522257431    6.68687602077225    5.98975945223671
H         2.00433632984431    7.03375426467085    5.25558394801667
H         2.37958313165592    5.73415696249304    6.38719411036344
C         7.30129320413598   13.78200425601660    6.39556990257057
H         8.24993383333820   13.40263136804802    6.02517887868937
H         7.49199459838078   14.72379378882921    6.90219505423369
H         6.65736179339247   13.98445239589806    5.54338366419328
C         9.08190016298220   11.46857501494081   10.59762815663032
H         9.64844102198844   11.16745077156901   11.46367001272746
C         4.09760973100850    6.50641946913996    5.32718829410743
H         4.01767982799627    5.77639174854522    4.51609776499185
C         4.55826827531100    7.84704497111810    4.75818845608189
H         3.80769174884844    8.22816756152718    4.06279771871568
H         5.47993518297632    7.71720489820387    4.19068460902959
C         2.05797368228756   13.37425142749329   12.40861458048595
C         2.42934003710304   14.05524203512719   11.13044028011046
H         2.04507013765595   15.07056927138117   11.11491719760077
H         2.01967809385019   13.51653113207319   10.27558492434843
H         3.51252059434457   14.08973993673151   11.01174756966093
C        10.00298862657506    8.60703699477917   10.51341396281506
H        10.66343300793969    8.87929654843690    9.69455495109963
H        10.03619733623160    7.52754239850876   10.64049403145892
H        10.38819631081643    9.05962122516537   11.42255995840141

