69
CSD_code = FEJHIL | q = 0 | S = 0 | Stoichiometry = C27H34Cl3N2OSiTa | MND = 10
Ta        4.33019764002850   -0.06687398899650    0.98451260110432
Cl        4.79371040875372   -1.27459525544071    2.95132338070040
Cl        3.49927135655007    0.14399230425191   -1.18779895470762
Cl        6.34219575705724   -0.63869431459604    0.20871644679516
Si       -0.06090242447908    0.64388597868442    2.05210068038406
C        -0.31071869233382    1.81194145397484    0.56306984722361
C         0.24316261002550    1.64786718282400    3.65042900596213
C        -1.50700689226877   -0.57224905100029    2.26499636743129
O         2.65169106722457    0.29623159863997    1.61670614129295
N         1.47093803603975   -1.60885577784636    1.43010930125526
N         2.60914658908416   -2.15819447192996    0.97761820833631
C         1.51061977228526   -0.34859997593657    1.67810105775387
C         2.94156026108226   -3.38207530371628    1.20667501997865
C         7.09027838038985    2.51671683769981    1.56306712593651
C         6.03605324723006    2.52038536044187    0.70912495611093
C         4.80050305326499    2.22756787363545    1.47444897645817
C         5.25664977258151    2.13041390095281    2.88304942618556
C         6.60729956417426    2.26703439476651    2.91313095932423
C         8.53533975832772    2.70711465897114    1.25194291021163
C         6.02518301500568    2.80538125047340   -0.75872705823752
C         3.60149996929574    3.10661180520063    1.17842816313724
C         4.31476851820180    1.96607970038268    4.03470698850381
C         7.51599388860422    2.19170138006955    4.09195159403564
C         4.51061340814729   -3.36015389218883   -0.71657865216989
C         5.68580691766917   -3.76534165781465   -1.31900777915006
C         6.52668533145965   -4.65914434251267   -0.67434221605393
C         6.18252592437355   -5.15613251716957    0.57234977420128
C         5.00324765628085   -4.76454969384860    1.17748764153566
C         4.15634094362609   -3.85783678034478    0.54005016311186
C         2.04659317045605   -5.62366844580452    1.77581888695930
C         1.32559399745277   -6.46216835195729    2.60382648934710
C         0.76429943892653   -5.97304435626094    3.77304166901974
C         0.92558437416306   -4.63945073585533    4.11120616235146
C         1.63528595225327   -3.79152852943268    3.28201464649548
C         2.20359220776619   -4.27673462003357    2.10543307289861
H        -1.11309007135282    2.52159000856629    0.74255771757503
H        -0.56116367621055    1.24878073638141   -0.33154659632058
H         0.59189766914461    2.37719988343074    0.34699011775322
H         1.00916636005418    2.40600807019650    3.51266718712061
H         0.56101277691498    1.00750732586428    4.46910944888065
H        -0.66293211483980    2.15641779938836    3.96610959973756
H        -2.44554094953185   -0.04460296693331    2.39828849438466
H        -1.36303953486294   -1.21542093296776    3.12721569952021
H        -1.60476144154890   -1.21546774805251    1.39685152242817
H         8.95618877323649    3.50303735899754    1.86538198730171
H         8.68265283932352    2.95949667260768    0.20589840852498
H         9.08616132739940    1.79113909923181    1.46799694505182
H         5.29968827414622    2.17568861298089   -1.27273454911610
H         7.00307375700562    2.62185628121965   -1.19591798834542
H         5.76118917379400    3.84874528444607   -0.94201151100340
H         3.32636435419543    3.04340202409015    0.12634009118706
H         3.84856152054500    4.14435932741104    1.40850144097608
H         2.74564759352812    2.81407826457109    1.78414240351816
H         4.78863557602861    1.41985550533188    4.84691243602973
H         3.42639587118289    1.41418586067055    3.73054146544325
H         4.00502479771450    2.94121671640890    4.41600816084884
H         6.96872355693233    1.92588958418288    4.99180346765635
H         8.00745139994295    3.15109914843904    4.25592060018209
H         8.29097897996480    1.44527001986898    3.92085346939964
H         3.84659240018065   -2.67341375777862   -1.22207014936989
H         5.95098622130638   -3.37647504945835   -2.29063214424373
H         7.45118574191109   -4.96465424142581   -1.14138976136480
H         6.84035423540599   -5.84671895730529    1.07907799084013
H         4.74825095154877   -5.13294563444325    2.16012301535609
H         2.47635890154774   -6.00170822301294    0.85965891717077
H         1.20135194432469   -7.50169704255465    2.33823025086126
H         0.20440183413483   -6.63187903698122    4.42023110673911
H         0.49708824873045   -4.25876743260142    5.02647614109653
H         1.77923872936673   -2.75770617926018    3.55453161048597

