54
CSD_code = FEJJAG | q = 1 | S = 0 | Stoichiometry = C24H23ClFeN5(1+) | MND = 6
Fe        7.34121748080658    4.61436929749238    5.81473431343681
Cl        5.72468290053977    5.62474269101584    6.85386317751756
N         8.83687336047448    3.69792733118858    4.92943548013327
N         7.29676578874622    6.16542873811674    4.64400239484303
N         8.67455842527739    5.30885321053653    6.93058935183668
C         7.03915528573762    3.32463414998469    3.36013843204339
N         7.16939296619456    3.02830679647806    6.85539185472909
N         6.15338167211008    3.82359716268716    4.38347542838726
C         8.40820583493308    3.34697174017981    3.60413936270151
C        11.02426030124996    5.71001782486631    7.04460045905462
H        11.99161376419136    5.65655426714366    6.56978807057685
C         8.06378673372182    2.07242341171399    6.58733404900406
C         9.18714286087774    2.47862287794481    5.68249491699145
H        10.05907090434326    2.68435106558458    6.31038416351501
H         9.44988581230694    1.66096202960591    5.00329566221708
C         7.99259681163542    0.80577746125993    7.14270468728589
H         8.73647409701427    0.06650540028794    6.89094585164921
C         5.36116831903144    4.96048722376452    3.89745744327974
H         4.60639515437143    5.17980485615532    4.66024869028864
H         4.86325596035164    4.76399399145952    2.94281804610090
C         9.29701297593208    2.96217991464979    2.60810800715169
H        10.35973568710039    2.98311968404799    2.79437226358570
C         9.62179817864656    6.27025474052906    8.89033653552057
H         9.46657748884931    6.66379099569423    9.88103499841892
C         6.25290961080334    6.15877027519795    3.80542822156549
C         9.93114838680986    4.66888935994224    4.99405781527852
H         9.74163504465061    5.44288845054153    4.24666462838414
H        10.91015612127855    4.22298543410246    4.78454823626455
C         7.45767489900645    2.48155022727876    1.14741899662680
H         7.08523329833296    2.13139271977700    0.19811574434477
C         8.03642819645255    7.27245509530209    4.69891823949192
H         8.83321806721968    7.28150231167643    5.42580103898459
C         8.54660533303687    5.79355306938364    8.16127007562744
H         7.53932969841848    5.81050565065880    8.54648787248081
C         8.82223105161675    2.54768605707889    1.37691583885400
H         9.51622316107421    2.26043552925340    0.60335852122818
C         5.96534997233008    7.21974101565068    2.96216674904738
H         5.11613539153881    7.16041936317159    2.30058448154496
C        10.88613457136967    6.23427886550202    8.32390533180183
H        11.74705015585901    6.59908845254967    8.86043328636561
C         6.56952366476677    2.86807366165455    2.13471403064508
H         5.50708107091388    2.81092930013740    1.95140790305539
C         7.80886175891062    8.38147392962971    3.90756196558637
H         8.43921900010115    9.24966798199745    4.00652360291036
C         6.04551303407163    1.51115885295198    8.31326819916316
H         5.23151263513211    1.33954725917818    8.99768140325635
C         9.89888963468803    5.26278705273108    6.37793935679780
C         6.18309616376768    2.74509560455616    7.70618513474156
H         5.49586218593841    3.55506771822296    7.89527338107515
C         6.96338711396748    0.51334209760370    8.02412133380763
H         6.88544765488247   -0.46402949670270    8.47237428402932
C         6.75870499813310    8.35386175447672    3.00320836316483
H         6.55174556564823    9.19689474118253    2.36416275980088
H         5.50678379483608    3.08861080292616    4.66910956380631

