167
CSD_code = FEJJEL | q = 0 | S = 0 | Stoichiometry = C88H58N12O8Zn | MND = 6
Zn        3.28698752089995    4.28335297799990    5.82742830886738
C         8.52678814228726   -2.23536250191348   -1.69096958437480
H         8.62044372755204   -1.28794397257299   -1.17608462025890
C         7.28409885979520   -2.71652307817332   -2.10519949420420
C         7.27162533853680   -3.91830842869012   -2.81381665461809
H         6.32857657326908   -4.30895570299774   -3.16452699249571
C         8.46267087726425   -4.57995106505674   -3.04604129381247
H         8.48511135276336   -5.51317709231321   -3.58770550420692
C         9.63368531035135   -4.01639681435390   -2.55933571573372
H        10.59217057322868   -4.49855257130031   -2.70067736052688
C         6.02530407405495   -2.00847037961344   -1.83860234791006
C         5.88110059187685   -1.14309384028745   -0.75593725461262
H         6.71062517502229   -0.96049851177765   -0.09183550262711
C         4.65145743776397   -0.52688993743008   -0.52904423321079
C         3.62399327704563   -0.79138901681722   -1.43052192213616
H         2.63191128986933   -0.39684667075769   -1.28076683358247
C         3.86800662406769   -1.64835038146003   -2.50188624342186
C         1.93020080831537   -0.89417602441521   -3.85231335377292
H         2.12678246529415    0.12857114047295   -3.55870646241003
C         2.78787236378447   -1.91827352692676   -3.45929460800617
C         2.53906905139011   -3.19147295515678   -3.96308052558731
H         3.19597439828504   -4.00611166646406   -3.69809120576831
C         1.43728284390651   -3.38812670502765   -4.77813675232295
H         1.21257740151209   -4.36204107662156   -5.18442214105541
C         0.60311610828168   -2.31163773368444   -5.03495159201573
H        -0.30097248768105   -2.42327655954064   -5.61882955195266
C         4.44176964561518    0.37238468429305    0.61387844715449
C         5.07547383788026    0.13880507377260    1.83444406811215
H         5.70479557910218   -0.73133071928609    1.95264997454286
C         4.88325770075757    0.99264978213378    2.90157104479052
H         5.36658141641996    0.81824483582911    3.85060360380800
C         4.05074437371163    2.09892470488075    2.77066214368698
C         3.40669173783121    2.33263308483377    1.56008444139859
H         2.75952707374853    3.19210159756055    1.47037610937178
C         3.60143142003047    1.47966903607917    0.49331524008061
H         3.11185863135318    1.68133768400138   -0.44828495351138
C         3.83378229106872    3.01408694964505    3.92510062753027
C         5.79635773210801    5.44303688174602    6.60202155466818
H         5.75910403887408    4.44046634931934    6.99544977297950
C         6.78843425728594    6.34116875421212    6.98847000052792
C         6.81787558414245    7.58423147731148    6.36055873670443
H         7.58778830022786    8.29362610474648    6.62352738376040
C         5.84634109980505    7.87565933087240    5.41802203603797
H         5.84075907918701    8.82364922339887    4.90272986954992
C         4.85756440213906    6.93870830232494    5.16068006649555
H         4.05929974819433    7.13993234043800    4.46031389624007
C         7.74450722983427    5.97493820106693    8.04093075283934
C         7.39361750081805    5.03332790131707    9.00540979283626
H         6.39867972958499    4.62032138335493    9.02735950930033
C         8.33635177047100    4.65592554293014    9.95832872777318
C         9.57715235274130    5.28697385498689    9.92920727844972
H        10.35303819980385    4.99826598030124   10.62022018526003
C         9.81884298753880    6.26653968014235    8.96528475612081
C        11.89128996771479    7.21430703669899   10.02246896284092
H        11.59193863196564    6.86646562349201   11.00271392754247
C        11.09014260106988    6.99717793895303    8.90084266517919
C        11.52943014007058    7.53205689592050    7.68933889231912
H        10.92560297238673    7.39234155189653    6.80538315120080
C        12.72764864701245    8.21992630710753    7.65016608066803
H        13.09708418581331    8.64253536880581    6.72852204307312
C        13.45115932681215    8.34937556695978    8.82763982785911
H        14.40150665832946    8.86613170626993    8.85071540402325
C         8.00888640753428    3.60977049667570   10.93606481371564
C         7.22208773085494    2.52529643126815   10.54490560301636
H         6.88376296760133    2.44455844817587    9.52299974562321
C         6.89094231431761    1.54246592228762   11.45165692528215
H         6.28338218082129    0.69961451129511   11.15814372306963
C         7.33332343438824    1.62491931790286   12.77027596560103
C         8.12132240406667    2.70137236482295   13.16695099503131
H         8.46051936381173    2.76134392419703   14.18934437939571
C         8.45850107772934    3.68107650386308   12.25397958025348
H         9.05457040380247    4.52470531021802   12.57001442131607
C         6.91296875004175    0.55892140937861   13.71382522580096
N         9.66465528410439   -2.86717268601257   -1.90642665398722
N         5.03039442706189   -2.25804129940890   -2.68740641733364
N         0.85265336324478   -1.08694320473835   -4.59449326619863
N         4.83722284334679    5.74665363770298    5.74384393709218
N         8.92315307244849    6.58455359637330    8.03508621796848
N        13.03762502201148    7.86539350175843    9.98635120697073
O         4.49178819444122    2.85763155288739    4.97723200012467
O         2.98721200401349    3.93690307450720    3.82434068009935
O         7.26944278689786    0.76996401779906   14.97230120559544
H         6.86849679674182    0.07824628661601   15.57036076496798
O         6.27080086958031   -0.40620711426819   13.35745666335546
C        -1.95239155031954   -2.23503605710875   13.34546708922935
H        -2.04595522686448   -1.28744798905958   12.83088463157837
C        -0.70974331132536   -2.71632695351567   13.75968237685651
C        -0.69730478226058   -3.91834576184584   14.46787479503663
H         0.24570263817497   -4.30898616170006   14.81870581572092
C        -1.88830193810334   -4.58033278906106   14.69929747818455
H        -1.91083177664405   -5.51362126707352   15.24084203304477
C        -3.05920590370628   -4.01684546422586   14.21226634798223
H        -4.01769996587472   -4.49910782704991   14.35325325033175
C         0.54906803342537   -2.00832166530737   13.49312633973262
C         0.69318297514668   -1.14287256159897   12.41050888572755
H        -0.13636891530563   -0.96026137252697   11.74644096281686
C         1.92273560702308   -0.52649347403951   12.18370317468404
C         2.95024199919097   -0.79092221229785   13.08517554056809
H         3.94230688869680   -0.39634813466812   12.93538489612354
C         2.70630208584423   -1.64803003008494   14.15646290435575
C         4.64323797488837   -0.89342125926061   15.50795156561142
H         4.44750096665546    0.12914403151459   15.21301972157586
C         3.78596720233608   -1.91766861726675   15.11446011714321
C         4.03485726963694   -3.19083877339255   15.61825201927228
H         3.37813128550163   -4.00557587535578   15.35308555486231
C         5.13664178582187   -3.38739578343275   16.43336559634060
H         5.36025357118872   -4.36088730828923   16.84133676246891
C         5.97072093650561   -2.31085310465037   16.69021492131279
H         6.87317665020139   -2.42187346832766   17.27661025223404
C         2.13215315058409    0.37283947179887   11.04078445298718
C         1.49860060654059    0.13903323070869    9.82018820768120
H         0.86958830486222   -0.73132131699476    9.70195340665564
C         1.69056946454978    0.99295061684767    8.75306280155725
H         1.20723565080462    0.81846489009973    7.80404463585254
C         2.52265847126737    2.09951657823093    8.88408756515151
C         3.16643687978497    2.33353399224442   10.09475085188407
H         3.81333322449027    3.19321254850655   10.18440687580094
C         2.97194956933522    1.48050214174219   11.16149631009120
H         3.46155643357422    1.68217642930969   12.10308034592774
C         2.73969831822962    3.01471514908504    7.72973029485782
C         0.77830121729282    5.44382528626337    5.05295477884048
H         0.81562517367543    4.44131293665988    4.65940151377454
C        -0.21353002502864    6.34204944897927    4.66614599097760
C        -0.24290016849332    7.58524660882189    5.29378109710500
H        -1.01252456899121    8.29478854438961    5.03036620036344
C         0.72848717394908    7.87665892050622    6.23647779462552
H         0.73394696938021    8.82462523155666    6.75181430021067
C         1.71711118406002    6.93961645001866    6.49412590490730
H         2.51482045563556    7.14056222752495    7.19519723306526
C        -1.16949244617303    5.97564292497333    3.61367456637913
C        -0.81866791890498    5.03384047846228    2.64936896584848
H         0.17631897610484    4.62095937546521    2.62731492418195
C        -1.76160307659295    4.65596240384404    1.69682731180420
C        -3.00260717375733    5.28662638519561    1.72623434446010
H        -3.77861235406226    4.99770284651074    1.03544532121252
C        -3.24420218937874    6.26642623722423    2.68994817597997
C        -5.31709471595740    7.21387633468922    1.63336089536021
H        -5.01764599861298    6.86662080738061    0.65294421186500
C        -4.51568092567670    6.99670190039234    2.75477916977976
C        -4.95484591497088    7.53116130081257    3.96650773641108
H        -4.35080852801069    7.39136358962370    4.85030628346828
C        -6.15325986323596    8.21866326761920    4.00610432161706
H        -6.52265688071069    8.64086077335054    4.92794823172119
C        -6.87703797309223    8.34821631278396    2.82880559046959
H        -7.82764664666746    8.86450072693905    2.80610680226940
C        -1.43400151489766    3.60994243610375    0.71897034761224
C        -0.64692873758257    2.52559774149816    1.10988348062375
H        -0.30886793796998    2.44454758091206    2.13182796464158
C        -0.31600320833764    1.54274516294035    0.20308408761325
H         0.29127410793166    0.69970139360673    0.49659671075028
C        -0.75881407287159    1.62509023461061   -1.11539389616449
C        -1.54706332776369    2.70147308553512   -1.51186098679742
H        -1.88596551192518    2.76178346012144   -2.53432281740927
C        -1.88398430541925    3.68121865353897   -0.59882132557210
H        -2.47992621092770    4.52499546308589   -0.91470371183511
C        -0.33873457498980    0.55899356187896   -2.05895919233201
N        -3.09019851519399   -2.86719922146697   13.56010653120771
N         1.54398294886842   -2.25788036456808   14.34190173262029
N         5.72086626049220   -1.08613182699549   16.25009093264400
N         1.73739644170277    5.74745828335431    5.91118244885782
N        -2.34826877909552    6.58498809742749    3.61970726696551
N        -6.46360208911346    7.86464316337051    1.66987909488487
O         2.08163764886187    2.85852791270957    6.67757891621085
O         3.58682404319462    3.93701917815451    7.83041303156534
O        -0.69474739794997    0.77039908817699   -3.31750900433466
H        -0.29442682259977    0.07813900525997   -3.91540591665619
O         0.30245095101900   -0.40673718811592   -1.70251043913330

