59
CSD_code = FEJLAJ | q = 0 | S = 0 | Stoichiometry = C26H26MoN2O4 | MND = 6
Mo        6.35394494888405   11.52049147383162    4.79248146916238
O         7.65324464826547   10.34954521534401    4.30001008224284
O         5.39024928153140   10.50795157908224    5.67905193849922
N         5.46953861338267   10.37529197443497    2.76773477945282
C         7.92439830741208    9.13696053592527    3.84924632180364
C         9.23943388575467    8.63626726373486    4.03544977218780
H         9.93980380512407    9.27288463334517    4.55770477006871
C         9.57983329311968    7.39711181703968    3.59121454287772
H        10.57979594866567    7.01568003357552    3.73851580804403
C         8.62938907962625    6.57723310416421    2.94620044413294
C         8.97288674017813    5.27715227190660    2.52605551267603
H         9.98451381865160    4.93593540175659    2.69348878781951
C         8.05232386609338    4.45833223915583    1.93596564760237
H         8.31967430859070    3.45969513344230    1.62483136267118
C         6.74388956715662    4.92053785164362    1.74619639137850
H         6.01164320979910    4.26823408074880    1.29282459901834
C         6.38249339078318    6.18095298266987    2.13543537329283
H         5.35847577754709    6.48575131355082    1.98714276022748
C         7.30585185136678    7.06356719307266    2.74361520182126
C         6.97370331842765    8.37685688116360    3.17722267266276
C         5.57586755378572    8.92382464879406    3.00640296742543
H         5.08175003295233    8.40741973566677    2.17006086410879
H         5.01387859300251    8.71829848658777    3.92505924744860
C         6.19686883022153   10.76556079621909    1.55854738860063
H         5.61357627711142   10.52307242776528    0.65449534451006
H         7.12738844479900   10.18948002655812    1.51626244738803
C         4.04473858229358   10.67404271849884    2.62691493128023
H         3.58693129483008   10.04210521953520    1.85063444480677
H         3.88862456330684   11.71696762722218    2.35628130733443
H         3.54977790665100   10.48977236611954    3.58012047397584
O         5.05767411292326   12.69002510806966    4.28744499055473
O         7.31205730187415   12.53761384359765    5.67970534644455
N         7.24715567795113   12.65484648167540    2.76502790960647
C         4.79648024847222   13.90647649288949    3.84071498174537
C         3.48474514589824   14.41604298435523    4.02654257636413
H         2.77903359803582   13.78255950494606    4.54542903923488
C         3.15356073128066   15.65879054328990    3.58541531100396
H         2.15577599737688   16.04636586500911    3.73146859081108
C         4.11107765985720   16.47450451524616    2.94557094457570
C         3.77750212572619   17.77807818073274    2.52827507082836
H         2.76723496110779   18.12496656852938    2.69208462419259
C         4.70563576225399   18.59295291692961    1.94457303893674
H         4.44562111631211   19.59383932262676    1.63455545990414
C         6.01217803648948   18.12354156195050    1.75956431108448
H         6.75074070219795   18.77322517878018    1.31280420961257
C         6.36384806278423   16.85936618186627    2.14558844384523
H         7.38698621538193   16.54922795387250    2.00267357869607
C         5.43188817397137   15.98010014105150    2.74538082525181
C         5.75361921835940   14.66233523819618    3.17335091503703
C         7.14793287141088   14.10740739595946    2.99933249481074
H         7.64062216838465   14.61847472971390    2.15874207795450
H         7.71478840251966   14.31386577218457    3.91478792599656
C         6.51616070416811   12.26454654377171    1.55803536631430
H         7.09679961864122   12.50709361125258    0.65220461517805
H         5.58546212865034   12.84054175649587    1.51860768240741
C         8.67043871623576   12.34982433850286    2.62227816357630
H         9.12906616813281   12.97713782450412    1.84272152553957
H         8.82212696371004   11.30542858569198    2.35494319569217
H         9.16839767058402   12.53564382575800    3.57360913028188

