59
CSD_code = FEJMEN | q = 0 | S = 0 | Stoichiometry = C31H23CuN3P | MND = 4
C         3.95664888418540    3.13004016124208    0.81608197292696
C        -0.05727541030454    2.82655754147940    2.04795084537315
H         0.29786832708820    3.82188290063712    1.81639023718193
C        -1.41931297103189    2.56702662380482    2.19845235128746
H        -2.13403848807854    3.36567161118423    2.07601689406900
C        -1.82993642544553    1.28693970846616    2.51103267907315
H        -2.87712079604163    1.05503618255570    2.64488381149491
C        -0.86954403788740    0.27944197603118    2.66521458660864
C        -1.17436679250808   -1.06090136606935    3.03595973159864
H        -2.21246222246352   -1.32814944462143    3.17370825305664
C        -0.19144929836140   -1.97142313070365    3.23580032998162
H        -0.42766820230662   -2.98037699906964    3.54211236045980
C         1.18141054448101   -1.63455381609497    3.05486340830353
C         2.23481149850606   -2.53074291440959    3.27769004112375
H         2.02463839908904   -3.54166586890845    3.59417424124636
C         3.53226226867053   -2.09518636180643    3.08821564178065
H         4.36835330747216   -2.75543695092564    3.25839392386755
C         3.76090391516855   -0.79797917543728    2.64549332746153
H         4.76644966847715   -0.44422812220932    2.45995491737063
C         1.51216784431014   -0.32939965938882    2.63421120078481
C         0.48340749770889    0.64113567469027    2.47203514159652
C         2.05515011612183    1.23330016339430    5.34684300220124
C         0.66477358954247    1.23884064107465    5.46018277028220
H         0.10119561581867    2.07970803412915    5.07547808070829
C         0.01105761616177    0.18372294485639    6.06683459954629
H        -1.06555293257568    0.20133433713558    6.15948651594304
C         0.73058215527862   -0.90060574761006    6.54267821985496
H         0.21610786687201   -1.72738909922924    7.00950836376796
C         2.11016733257445   -0.92635241733863    6.41032084097081
H         2.67209147802493   -1.77579705522470    6.77143859368189
C         2.76957200189704    0.12672674896125    5.80751281984198
H         3.84546003641670    0.10167742089300    5.68915683121056
C         2.11548497954206    4.03718848313332    4.67894906249341
C         2.20703639805370    5.02093823710507    3.69828757864830
H         2.69012200327754    4.78297797764815    2.75787428812776
C         1.68566185152899    6.28049814895368    3.92957603044496
H         1.75864148224775    7.04156178319592    3.16683987472684
C         1.07028153548602    6.56222298276127    5.13861727317956
H         0.65887942955544    7.54424674001396    5.32063167911648
C         0.98491350188688    5.58607012503956    6.11866626683962
H         0.51053866607277    5.80953531173364    7.06369958423618
C         1.50947601136761    4.32580435880959    5.89700164520884
H         1.44469879849699    3.56979777821897    6.66749246111933
C         4.50188823830353    2.68366053794915    5.07844960294445
C         5.59140051368550    2.93033840395385    4.25052087819455
H         5.44916889786148    2.93288822837929    3.17624646293962
C         6.83802407281686    3.17005899912587    4.80101527376628
H         7.68245893327865    3.36103887223911    4.15558988261987
C         6.99923077214627    3.16358959485230    6.17640270119391
H         7.97227922417944    3.34759615194748    6.60782755883374
C         5.91243739228195    2.92298848792407    7.00347218210203
H         6.03955208578528    2.92235457353398    8.07661578211155
C         4.66355512886159    2.68800775179855    6.46068825481430
H         3.81559681329190    2.50207434652149    7.10570763927201
N         4.51902370664522    3.86371811482328    0.12600459047405
N         0.86480243222961    1.89924790520536    2.18304520770248
N         2.78626103392342    0.06687172701128    2.41058430072829
Cu        3.04468950120826    2.00838496359169    2.00666270547458
P         2.88274420913342    2.43748487310633    4.27785469803827

