88
CSD_code = FEJPIV | q = 0 | S = 0 | Stoichiometry = C37H47N2PZn | MND = 3
Zn       12.93043326845183    7.67503534656210   13.08217715268426
P        11.34655112456588    9.64537705731865   13.80473053616850
N        10.99521111945600    8.08205610447838   13.85241063044643
N        12.95590963697259    9.60451387088758   13.68450466765231
C        10.76003442118337   10.49983233681104   12.28323263063150
C        11.09361370324988    9.86161318012958   11.09476346397027
H        11.62790881288047    8.91438845630653   11.14145513312626
C        10.75007398731556   10.41717424174415    9.87760590516643
H        11.01201187441937    9.91360445914667    8.95837445172345
C        10.06822434358596   11.62334178053662    9.84117118369231
H         9.80011132766150   12.06428360426382    8.89244394764819
C         9.72627234338464   12.26068491895477   11.02205306060128
H         9.18976935794196   13.19832659360213   10.99407207034893
C        10.06723820799708   11.70263504963391   12.24164810926633
H         9.78399161439605   12.19679695850826   13.16133097816026
C        10.82156389348401   10.66310474994876   15.21575954858484
C        10.06934411532745   10.11252920689484   16.24585996412182
H         9.73433209547022    9.08691267924397   16.17450193286615
C         9.75486257474087   10.88102494152986   17.35167785393369
H         9.16397324875559   10.45743684487252   18.15074039616402
C        10.20253464945759   12.18988857270197   17.43779889039540
H         9.95893078860860   12.78649174542246   18.30476513657553
C        10.97034873329003   12.73223028509949   16.41958990863203
H        11.33098796553667   13.74780610225902   16.49404825467206
C        11.28276085678323   11.97152117576806   15.30766711981981
H        11.89086431660836   12.38252639150206   14.51381767983697
C         9.91331450458294    7.33451047380913   14.30665347769277
C         8.56510163510313    7.69021310811824   14.10924902502484
C         7.55918631821161    6.82152478761571   14.50073727282068
H         6.53004288334826    7.09217841101984   14.32049060602685
C         7.84483301759195    5.61602971500296   15.10888124825320
H         7.04914382680656    4.94653828532477   15.39972736483141
C         9.16301648839559    5.28793182225946   15.35374889824375
H         9.38864361360185    4.35891814274233   15.85602169029954
C        10.20094338545620    6.12458193188258   14.97445460464928
C         8.20134643825972    8.99599339540137   13.45467906591930
H         9.07108759109463    9.65794845514566   13.54332974976013
C         7.91336263798602    8.77206969121535   11.96962412362841
H         8.76348265051111    8.29425271620453   11.48668868280823
H         7.72013596378354    9.71893580185904   11.46841705142434
H         7.04485439637274    8.12745175606832   11.85016039223962
C         7.03574955846925    9.71592592389675   14.13090348529380
H         6.94283064788780   10.72152110485022   13.72421723667303
H         7.20181125610234    9.79234554119473   15.20361973244799
H         6.09489150311280    9.19882669123460   13.96036009371040
C        11.61149999292597    5.71280244737908   15.33280438775062
H        12.31558626419448    6.47671623893614   14.96781591076996
C        11.98948473492194    4.38421145615459   14.67648795195485
H        11.37037706560129    3.57363849383705   15.05299197447922
H        13.03043975404796    4.14456283973396   14.88455315156354
H        11.85653280192694    4.44624138313576   13.59849556889066
C        11.77690956713517    5.63964893243891   16.85253151955449
H        11.54597416818777    6.60223938940305   17.30468540367323
H        12.80073726803740    5.37192867197217   17.10695495767867
H        11.11254018066453    4.89327692296929   17.28146164613621
C        13.82259613653721   10.58033887144068   14.19947854296445
C        14.39654368788276   11.54370504612170   13.35807134908895
C        15.25521705038889   12.48854433603361   13.90091870906882
H        15.69444914562991   13.23910150262915   13.26014328725964
C        15.55969063824048   12.48396464446588   15.24742513942802
H        16.22528917786764   13.23007893256322   15.65670902736405
C        15.02612893058650   11.50631565140525   16.06670621045832
H        15.29427905559945   11.49118957857894   17.11186026998863
C        14.16036025517977   10.54908335054221   15.56429137288082
C        14.11535654247641   11.54630363885739   11.87456841476861
H        13.40996552687083   10.73769149324367   11.66108918140670
C        15.39766737581156   11.26526226088457   11.08870528336474
H        15.17927643994711   11.20498586106745   10.02426964044371
H        15.83340671807485   10.32080294063242   11.40837406423759
H        16.13135829850421   12.05256122030504   11.24528978338454
C        13.47803730546623   12.86126226739814   11.42419522111808
H        14.16034622767256   13.69587705023424   11.56758705946005
H        12.56868896374546   13.05846883367404   11.98881956452503
H        13.21556334547480   12.80814942454952   10.36929650195303
C        13.64921108103117    9.42805196926454   16.43703803333534
H        12.69858837719477    9.07342175939367   16.01910118967661
C        14.64980051979578    8.26918565718694   16.37666629839012
H        14.75632249784340    7.91406934908394   15.34825158349138
H        14.31293360446213    7.44272224626828   16.99831009549128
H        15.62692635436109    8.59612912224422   16.72731988686471
C        13.39044608624103    9.84245038202132   17.88323455481196
H        14.32183401215490   10.00927661330035   18.41936530293169
H        12.84461759752824    9.05521003503749   18.40006238905534
H        12.79600273607170   10.75293967029463   17.92038796805568
C        13.86623460081810    6.38729617593327   11.85735287407911
H        14.54336154163127    6.90489556711061   11.18643043384359
H        13.15289727407309    5.84349555719226   11.24706828453955
H        14.44908439896049    5.65366780652442   12.40216560126963

