35
CSD_code = FEJQOD | q = 0 | S = 0 | Stoichiometry = C11H12N4NiO7 | MND = 6
Ni        2.79555006965416    6.86080405736315    1.92444981515425
O         2.06932917798904    6.80684916510942    0.08313937538176
O         0.28255288265912    7.39268001392188   -1.10550445230589
O        -2.56757131852068    9.01533269077978    3.06212714419834
H        -2.69558271534690    9.19612686593804    4.00300615810043
O         3.05660473244615    7.17507811895424    3.83705335862424
O         1.98806850748125    7.92217116570604    5.64435175388330
O         4.01821632865057    8.96636550973687    1.66876567085797
H         3.39261962894585    9.68345031614014    1.53149242063412
H         4.31497349908506    9.01245791160677    2.58533670355107
O         1.75528952824962    4.66436846913100    2.08212662899790
H         2.40572714586497    4.00466023166647    2.33677527997744
H         1.56095261204470    4.53824727099088    1.14633164277185
N         1.18493355084416    7.59993087748728    2.26249595880034
N         4.53322110006769    6.05110957235234    1.63058237468319
N         6.54323722824714    5.74623877038851    0.39376849913534
N         4.72204555503692    6.67797236074213   -0.59845754671290
H         3.73808015085634    6.93520160798855   -0.59170564396004
H         5.28410860298293    6.75205912873757   -1.42736359277961
C         0.29728477598667    7.73919643281898    1.27667821182025
C        -0.97394285873239    8.21885033339920    1.51614605381079
H        -1.67682901592508    8.32613183971357    0.70647296254997
C        -1.32949633092359    8.55222889284314    2.82838983760363
C        -0.38402370844999    8.39146147375022    3.84415895376828
H        -0.60213762439248    8.62769806039834    4.87562800356353
C         0.86834441419211    7.90804882369910    3.51825731235680
C         0.88761624310927    7.29191734977125   -0.06106832384352
C         2.04872498627196    7.65659207579591    4.46206141452858
C         5.27008262005764    6.15600250378934    0.49108012953031
C         7.10952852919228    5.19737046878668    1.44191420548329
H         8.13909932560774    4.88978688157061    1.31401549177297
C         6.42876124085726    5.01983350944623    2.64143024597428
H         6.88831227941279    4.56374289758127    3.50058551066514
C         5.12681302484523    5.48300983961520    2.68228027472018
H         4.54070583165178    5.41922451227915    3.59029816670513

