47
CSD_code = FEJRAP | q = 0 | S = 0 | Stoichiometry = C21H22ClNRuS | MND = 9
Ru        4.05700987931170    4.53182702922950    5.22716784072072
Cl        3.40249132906157    6.77951886556939    5.34401300819350
S         7.18585050105246    5.96492461501545    2.33497662884131
N         3.57815844156495    4.61722192150539    3.25646957387091
C         7.88423839863193    6.00126428841868    3.90566180771002
H         8.90121472414761    6.32974622292964    4.00862181179964
C         7.03580135929329    5.59154769983477    4.89144418189785
H         7.32351885302131    5.57655536202067    5.92912411520797
C         5.76392116723930    5.21663975440961    4.41090312544177
C         5.69811445654517    5.38185707933831    3.02730202610514
C         4.47896721818368    5.05988637398535    2.41746250517588
H         4.26621510843605    5.19060970648643    1.36179100075052
C         2.30690772928583    4.23679475784572    2.82856920042880
C         2.13360107149566    3.37889284136006    1.74238947125123
H         3.00136280997736    3.00868259184703    1.21498472068715
C         0.86096250048443    2.99009717653647    1.36688928926743
H         0.73335847664042    2.31962493634774    0.52967918110953
C        -0.24590911973312    3.45496109083584    2.05763279111509
H        -1.23730865825688    3.14855764690047    1.75923506125548
C        -0.07745668804062    4.31906024757593    3.12915897138481
H        -0.93951897474598    4.69511946669587    3.66057062522931
C         1.18892152037990    4.70801711635253    3.51878433845789
H         1.33627730709278    5.40470130765391    4.33379342960830
C         1.46212552088576    4.86842272309263    7.62631274940477
H         1.50023744833101    4.84323811031139    8.71505129131228
H         0.49840002579692    4.48973191667047    7.29260474173134
H         1.55775176660272    5.90997079712168    7.31021047069121
C         2.58683560904367    4.07417263266448    7.03989372396754
C         2.37868697395086    3.09819025655329    6.07308741459430
H         1.37325112566054    2.85194821229907    5.75263790492688
C         3.48125425264980    2.41655585586279    5.48763899156424
H         3.27779374216668    1.64142449682044    4.75546495779809
C         4.79591398363531    2.57316384007581    5.99394218754785
C         4.99351887880537    3.54164730707664    7.01531056123162
H         5.97603535876245    3.64941046063645    7.46363879771799
C         3.92697584714375    4.32466507339540    7.47745032985012
H         4.09061607235416    5.04878053798371    8.26975160442458
C         5.92979505402286    1.67773973355346    5.55160728656929
H         6.86597292274561    2.10736256352150    5.92591423791273
C         5.75300459528752    0.28719577147223    6.17148724398178
H         5.70400978622569    0.35432190164859    7.25658247856362
H         6.59032994059770   -0.35188034568986    5.90242305682447
H         4.83625933287724   -0.17722571334801    5.81396238902209
C         6.02916952501350    1.59041707749197    4.02780169422020
H         6.04673928380066    2.59215365347914    3.59893225971365
H         5.18611574629121    1.04648683784047    3.60863654917793
H         6.94170779627687    1.07219820077516    3.74313237174319

