61
CSD_code = FEJSIX | q = 1 | S = 0 | Stoichiometry = C31H23N2O3PRe(1+) | MND = 6
Re       10.07932275560734    2.10003891881720    8.75383073746761
P         8.04026276802273    1.34695041604848    7.52648160633183
O        10.79603116688289   -0.86211244588277    9.31124063250395
O         8.62955126375767    2.46488450655926   11.46919585747008
O        12.72195490626356    3.10865517866518   10.02142190605380
N        11.02227512486955    2.13519566527905    6.82349193805960
N         9.65418437588397    4.06817256893091    7.99843530701187
C        10.52131313821998    0.23502401164531    9.15574488965348
C         9.15626794252924    2.29775774880890   10.46822182689401
C        11.74823957049951    2.73588029267257    9.56868097159796
C        11.74900054686142    1.14535431639641    6.31004935966998
H        11.85093517716758    0.25477607312520    6.91585391157300
C        12.36114759923192    1.22014499027543    5.07298354354205
H        12.93675300452360    0.38674182677743    4.70634841405386
C        12.22762556535346    2.38619269515497    4.33507441957044
H        12.70398419819488    2.49170761281347    3.37340436787561
C        11.47294764196244    3.41821808543872    4.85999434632251
H        11.36531235216284    4.33684712248640    4.30836578241791
C        10.86579089221636    3.26281096056592    6.10498863083267
C        10.04230088653878    4.30814353376146    6.73055835944624
C         9.68053172027250    5.48323660698124    6.07409331550409
H         9.96942159949284    5.64919817720128    5.04985179983389
C         8.93839474377601    6.44009820808478    6.74159044878824
H         8.64600982474210    7.35067311392253    6.24335865170807
C         8.59691944335758    6.20854558455376    8.06486028712759
H         8.04614052815613    6.93564861340750    8.63781682482561
C         8.97377210935645    5.01206018568800    8.64625622307187
H         8.72846219799497    4.80862337501088    9.67988556056820
C         6.69420914688410    2.55569536283254    7.31929882943939
C         5.93595962786376    2.69255543921023    6.16178702245916
H         6.14258712665924    2.08672613625733    5.29129930797356
C         4.89674076205219    3.60624133679338    6.12738887159995
H         4.31112562093521    3.71133303353267    5.22662866480866
C         4.59956728449369    4.37451409756315    7.24094339253424
H         3.78827081518703    5.08485518652050    7.20435783479088
C         5.33144231176992    4.21617567469654    8.40712577894386
H         5.08592975556247    4.79343655164590    9.28546533600059
C         6.37219307851298    3.30844016846375    8.44649874052590
H         6.93257520459072    3.15453209187499    9.36012023917258
C         7.09490528541497   -0.04435486144656    8.21709634831875
C         6.08822938154534   -0.62229459741957    7.44548884541056
H         5.90755766434349   -0.26862702259910    6.43945722326135
C         5.32870974355143   -1.65137948315142    7.96652946221706
H         4.55302168674640   -2.10202577595675    7.36636315362322
C         5.56003569971658   -2.10227956598163    9.25769973947883
H         4.96385989181963   -2.90606283681748    9.66100780866131
C         6.55246696123404   -1.52183531887634   10.02936660849884
H         6.73174135557785   -1.86979862981278   11.03483750332733
C         7.31989812337828   -0.49176290597789    9.51317906887897
H         8.09753763472048   -0.03555518955891   10.11324327447210
C         8.47959898156319    0.76899346034488    5.86083121448255
C         8.85109416370322   -0.56337890756051    5.69297740842432
H         8.77362318890399   -1.24777868839050    6.52709144198916
C         9.40938018839407   -0.12507520568248    3.40144397079231
H         9.75850754257382   -0.47362094191653    2.44189878714045
C         9.06678915469442    1.20666006419970    3.57000523540213
H         9.15217804876793    1.89676207590049    2.74370593874211
C         8.61284139102320    1.65780279797747    4.79630489709473
H         8.35500250863966    2.70189685248583    4.92447374024199
C         9.30537602552867   -1.00748489927328    4.46508878121723
H         9.57889159968549   -2.04357344307880    4.33761561039257

