73
CSD_code = FEJSAP | q = 1 | S = 0 | Stoichiometry = C34H29N2O6PRe(1+) | MND = 6
Re       21.08855535482130    2.08760438361903    2.00855825381532
P        19.49009000132754    2.09252560546983    3.93839295346141
O        21.78546453250328   -0.90035466558483    2.43381226647446
O        18.99732379046668    1.32109697113120   -0.14893024951836
O        23.19370580848412    2.36753672218659   -0.24821842267923
O        22.30239935017937    4.91841965101290    8.34550384286347
O        14.10471444382773    4.58582004795578    3.51861092974417
O        17.52680589342630   -3.21464284703716    5.76094146318972
N        22.56061463155258    2.77822691522749    3.41112774632149
N        20.80186026051247    4.21831728225562    2.06901848157867
C        21.49647221091900    0.18778415991937    2.24165881407694
C        19.73892232467194    1.61130206073768    0.67297818678220
C        22.41769445364758    2.25078335993396    0.57557498971070
C        23.48005269253204    2.00962996788035    3.99001883200363
H        23.46983164390834    0.96051048522729    3.72538198658690
C        24.42092342273193    2.49470364107945    4.87889698634915
H        25.14856037653478    1.82683890154245    5.30963577488123
C        24.40443066267087    3.84559185934037    5.19049918072227
H        25.12318333839264    4.26740541768335    5.87535700464268
C        23.45298446431332    4.65103525203413    4.59434123140224
H        23.43074571941082    5.70417308618301    4.81609559196637
C        22.53982230611773    4.09251663013959    3.70140701364104
C        21.52994552485940    4.88486182296746    2.98665806949452
C        21.34039002380604    6.24827716232573    3.20872783863123
H        21.91257913121850    6.76322005208486    3.96133452929351
C        20.40402352513831    6.93978810867276    2.46419037521270
H        20.24260792956756    7.99306771804243    2.63030404696443
C        19.69135653753186    6.25255040658350    1.49283290395027
H        18.96900344496318    6.75180905193508    0.86871000185395
C        19.92477353212799    4.89984462330231    1.33377570613014
H        19.39398659683273    4.34111259982376    0.57483671451617
C        20.23756340626415    2.90226398162454    5.37714780538789
C        21.15520845245458    2.20447016993185    6.15780421890356
H        21.32186373841042    1.15164276203121    5.96932445251622
C        21.84890070795463    2.83297046745720    7.17323552525261
H        22.53879500580580    2.25892934379312    7.77101251229198
C        21.65622664030292    4.19429910090457    7.41019103238019
C        20.74160974987474    4.89893704681421    6.61888960904091
H        20.59428513907785    5.94791104138404    6.82157615650693
C        20.04772053116077    4.26450581038171    5.61493191452964
H        19.33934262610091    4.82268653264808    5.01701876798579
C        17.88565893877110    2.92539719569477    3.76949368880706
C        17.14287700206183    3.24828610617372    4.90858438880001
H        17.54971184265518    3.06151646707471    5.89188330309383
C        15.89349308168104    3.80359540176157    4.78497919534229
H        15.30980516340959    4.06028445378507    5.65454283263198
C        15.33368410059036    4.03924886143338    3.52119331212320
C        16.06612171617566    3.69808926307929    2.38522569838746
H        15.66146736105501    3.84982550270483    1.39736242196427
C        17.32517441356125    3.14297795614771    2.51878572188481
H        17.87607550425980    2.86045808975036    1.63327548743234
C        18.95869750124882    0.46120189872986    4.52592696334754
C        18.72728306055777   -0.52764591394840    3.57511716501823
H        18.92685165577652   -0.31768625236743    2.53044084152205
C        18.24779919412472   -1.76906754783420    3.94165180709202
H        18.08446167455854   -2.51408713584557    3.18004905010409
C        17.98288861774275   -2.04310153137700    5.28418639157198
C        18.19819085462030   -1.03879980571530    6.23709814129382
H        17.97943115821787   -1.26261613314808    7.26906607887186
C        18.67078229469612    0.19711973558263    5.86515466136449
H        18.82562071152995    0.95594121333961    6.61867183718308
C        23.19165813387568    4.27003225167713    9.22936786940154
H        22.68309620656795    3.49781562813208    9.81263331408437
H        23.55485562307748    5.04648591825585    9.89962317250142
H        24.03762089753030    3.82779856829886    8.69427788128599
C        13.44735746948359    4.80645047096940    2.28905903729715
H        13.99239850776867    5.52211406955108    1.66650354657855
H        12.47568211308804    5.22218114277142    2.54805751944003
H        13.30649386043856    3.87201107492885    1.73874275256775
C        17.28160100847937   -4.27746395629340    4.86412939490811
H        16.51015896122033   -4.01429905497818    4.13501517170209
H        16.92939434283493   -5.10296053380263    5.47948298538195
H        18.19456710190920   -4.57797609532048    4.34235332819561

