59
CSD_code = FEJXUN | q = 0 | S = 0 | Stoichiometry = C22H33ClN2Ru | MND = 9
Ru        0.47503812211831    2.65492436239375    2.78377869053885
Cl       -1.36619586321284    1.63578397222569    1.71538643476886
N         1.28696991525194    0.63905501302295    3.00114113651755
N        -3.23419233630987    0.89552422297915    8.52653015737464
C        -0.78532354628526    0.13482829710300    5.99699747011543
C        -0.30654933670812    0.66859149076684    4.81314746760425
C        -0.38542570268631    2.03701813277552    4.53263876410925
C        -0.99497645877156    2.84180338862523    5.48607864688471
C        -1.46971404526948    2.31556520897923    6.67749183233862
C        -1.36660567696848    0.95930891353623    6.94996650108484
C         0.28162982125240   -0.17627697354678    3.71712183846391
C         1.56429918720568    0.03854746144234    1.69622856245392
C         2.51327344534668    0.64476663965328    3.80096048865101
C        -1.89100334392148    0.40983000266901    8.24896239862437
C        -4.18070568191091    0.42154080207021    7.53841975503682
C        -3.65841528392621    0.54821950276149    9.86422697200510
C         1.56554952463576    4.42426935815669    3.65601004694261
C         0.30461499717248    4.84709387628575    3.14920299159191
C        -0.04219804931380    4.60047153897355    1.81050097374497
C         0.89283655631210    4.04485665660828    0.88604890023245
C         2.12079141552728    3.62285108775845    1.38363723032721
C         2.43248060461663    3.75749876375804    2.76699399611391
C         1.98611484623552    4.77358031126894    5.05322786569288
C         0.56166481628025    3.99114100285402   -0.58659514812304
C         0.65915828015764    2.56784281235796   -1.13729161827435
C         1.47262109626340    4.94977113732108   -1.36059549855840
H        -0.71366062582242   -0.93079377860001    6.17311554912878
H        -1.13625485531805    3.89911943839369    5.30669531011716
H        -1.94869098928880    2.95607540210582    7.40319481183760
H         0.73369718925587   -1.10445616356289    4.09256280086252
H        -0.51673676634415   -0.42710687308845    3.00960082842814
H         0.65368587156021    0.06260480833422    1.09617883033238
H         1.89664210634768   -1.00025919047089    1.80873025825336
H         2.34528428824477    0.60162627156284    1.18487868639164
H         2.31228010278804    1.11230626407237    4.76590586794246
H         3.30085738114725    1.19330218250353    3.28658859013421
H         2.86538315114826   -0.38046827970931    3.97205419344587
H        -1.85317419363938   -0.69565053651131    8.22836571329454
H        -1.24495480662635    0.75022083892943    9.06670240093517
H        -5.15170351797965    0.87668477031829    7.72907895934990
H        -4.29605934360275   -0.67470146965087    7.55701204319039
H        -3.84185279711346    0.71899689023625    6.54805827559591
H        -2.96174922006194    0.97297352150968   10.58656856606153
H        -3.71207336467267   -0.54118988700349   10.02827496657772
H        -4.64566438788878    0.97235634194471   10.04407352443798
H        -0.35826643584262    5.43307931529332    3.77676728122343
H        -0.99281839977137    4.96740501444030    1.43318289815665
H         2.88024260002752    3.23952655614966    0.71157231833349
H         3.43562674461256    3.50996225931969    3.10372825856410
H         1.23772371932111    4.44189229338339    5.77250138514796
H         2.09403642002415    5.85496783037234    5.15054025005676
H         2.93683088620357    4.30647241876778    5.30255293126039
H        -0.47452606415513    4.32464242105048   -0.71170239221374
H         0.34270057287350    2.54862828674676   -2.17736795706971
H         0.00599019568081    1.91237949000950   -0.56406480324569
H         1.67944819036976    2.19301360227782   -1.08436157034490
H         1.18671804080817    4.96777207497346   -2.40967973865444
H         2.51252388523571    4.63557554643614   -1.29495635642782
H         1.39327711937802    5.96053535665744   -0.96416953736472

