49
CSD_code = FEJYAX | q = 0 | S = 0 | Stoichiometry = C26H14Br2FeN4S2 | MND = 6
Fe        3.08642147265545    3.26214726136386    3.74763046115741
Br        3.65558497244572    2.21021810757321    1.78757924385018
Br        2.04151964820123    4.03153640454411    5.64227689356890
S         4.34270895213616   -0.70487141871652    5.82018439623482
S         0.59654364889724    6.49870871984465    1.51993642141000
N         4.74655417147234    3.00272356326591    4.48688497083753
N         3.75124550434078    4.91956684134912    3.32104606356934
N         2.96878580572780    1.18935956022981    4.70940777738984
N         1.41334828901571    4.26264423903850    2.54118608920511
C         5.19787825862684    1.88128079115838    5.06790707427073
C         6.51982893035797    1.79771247648010    5.54522384609797
H         6.84220415855613    0.87524230553053    6.00350836758595
C         7.37378080904019    2.86969818732564    5.43531872492463
H         8.38421260580970    2.80692636642706    5.80850266626287
C         6.91788149547123    4.06091666393282    4.82429662963456
C         7.63185087926399    5.27191095023860    4.61200591617611
H         8.65587074690131    5.32531757448744    4.95141707692632
C         7.06243800331060    6.35649885460268    4.00108382912252
H         7.63969487145829    7.25955127539502    3.86722745128964
C         5.72280379063707    6.34105330946433    3.52506825465681
C         5.00825825732453    7.37912668887333    2.88324480300802
H         5.48322847888854    8.33126659961935    2.70459167592986
C         3.70763378390283    7.16242644546449    2.49352912445546
H         3.13729885945007    7.93785455721326    2.00530944644311
C         3.09034536380882    5.91644215017774    2.71417936168989
C         5.01795014593924    5.14626249195924    3.71728904264268
C         5.59404485947186    4.04207859056795    4.36775922731687
C         1.77875651313461    5.50396004954572    2.32567719661096
C         0.18333744554666    3.99659936695411    2.03140638647828
C        -0.45266898849387    5.11167105252096    1.44421277670581
C        -1.71736952576111    5.01109458822667    0.89073480198405
H        -2.19377263732308    5.87359794671604    0.45213334072067
C        -2.33866692323860    3.77763850203316    0.90880160320676
H        -3.32430674039462    3.67476145737388    0.48142406101216
C        -1.70277277042601    2.65924219295107    1.44774607359385
H        -2.20138714387048    1.70232931782962    1.41824209326777
C        -0.44799678513482    2.75472691588999    2.00553389761306
H         0.07389676600076    1.89397640930428    2.39056817885960
C         4.17050220561952    0.89134648863289    5.14337291666675
C         2.08222323307219    0.18517889827392    4.93108225112030
C         2.64876743657116   -0.96750797489869    5.51658821744152
C         1.88224482151488   -2.08610599834753    5.79399359626835
H         2.33088008083181   -2.96213350425075    6.23495079613642
C         0.53379557239897   -2.03947870415794    5.49905447799925
H        -0.08395468866037   -2.89967755130963    5.70658709830562
C        -0.04525016655141   -0.89144941591766    4.95861693682109
H        -1.10728293654463   -0.87536123932419    4.76688326650535
C         0.71315031650668    0.22182626280144    4.67548105599289
H         0.27565815208995    1.13006538174358    4.29451414103294

