57
CSD_code = FEKFEH | q = 0 | S = 0 | Stoichiometry = C19H33ClIOPPt | MND = 4
Pt       -0.49308146398436    1.31327913544276    2.90061946580751
I         0.51936286422002    3.74035679966863    2.89983311539803
Cl       -2.36868961333483    1.98191718882632    1.85466231864431
P        -1.43289985741841   -0.81942358144029    3.03499145799745
O         2.13409637255826    0.66198531184041    4.19890596147664
C         1.11453755351101    0.86391517848623    3.72324068672254
C        -0.08665760181467   -2.08751654019153    2.85515009527403
H         0.54677719309340   -1.89739378587063    3.73398098284396
C         0.78350657211451   -1.82473279561612    1.62411772546236
H         1.05865582604914   -0.76210481280890    1.57794197232983
H         0.23893808744049   -2.06506989266401    0.71116910029620
C         2.03585171293490   -2.69430401070420    1.69737059472155
H         2.66132149470010   -2.51732974951256    0.82113810940686
H         2.61693798676046   -2.42550475618938    2.58235801042824
C         1.64682538647350   -4.16941450887561    1.76863616577730
H         1.13129827291426   -4.45123193584812    0.84764332137550
H         2.54382614173454   -4.78529651096292    1.84912266727765
C         0.73138030209158   -4.43463045738158    2.96128846341142
H         0.43688850797073   -5.48570746433214    2.97658150272355
H         1.27197229332060   -4.22616615636773    3.88746213523925
C        -0.51482138707415   -3.55158336886216    2.89162997013673
H        -1.15529585552048   -3.74407521503926    3.75538833349872
H        -1.07153279820672   -3.80062814906892    1.98699147568908
C        -2.07894656414966   -0.99409732263085    4.76545836959868
H        -2.58280833911143   -1.96191837657313    4.87159196527697
C        -0.95805639837529   -0.89932453401770    5.80098046512540
H        -0.25900794434615   -1.73099122105284    5.69253774257687
H        -0.40796575582242    0.03724104744829    5.64449702013629
C        -1.52493568159581   -0.91105617664208    7.21920977609692
H        -0.70574934758801   -0.83385723013736    7.93621835235319
H        -2.03666238360329   -1.86034116120278    7.39707106362930
C        -2.50442219309887    0.23982915478063    7.41721576740905
H        -2.90836814002415    0.21558989538498    8.43048715300023
H        -1.98062991458965    1.18887741032641    7.28645632808790
C        -3.63496068570482    0.14080197624871    6.39982206307728
H        -4.32531762915131    0.97647399800914    6.52394288007023
H        -4.19489174706119   -0.78355322420573    6.56556539915347
C        -3.07646655406095    0.14897685915252    4.98123895202273
H        -3.89713892757234    0.08147026080401    4.26445309447301
H        -2.55548526408136    1.10188433521536    4.80192348375802
C        -2.88064967637883   -1.18963046017533    1.93705962407543
H        -3.48264799046557   -0.27403513409393    2.01711038890294
C        -3.76562665436178   -2.37447239724476    2.32143829940551
H        -4.10112462783980   -2.29410309134854    3.35662397788715
H        -3.22410543108348   -3.31458914423583    2.21041296436580
C        -4.99078396643019   -2.39151418065913    1.40538990803872
H        -5.62757578711472   -3.23973776459192    1.66516567976600
H        -5.56952140998771   -1.47854118452125    1.56141867030912
C        -4.57726061179520   -2.47990245717505   -0.06051850863949
H        -5.46499533776885   -2.47253421562700   -0.69493894978046
H        -4.05223929493426   -3.42278826377468   -0.23369696134574
C        -3.66380681530320   -1.31473498342829   -0.42939840400382
H        -3.35149212798184   -1.39913448832546   -1.47188258610944
H        -4.20444566067847   -0.37318460355119   -0.31709820938001
C        -2.43741411257417   -1.30269881905941    0.47827597125506
H        -1.79258492194974   -0.45632247408288    0.22456089348546
H        -1.87731009394306   -2.22772195154167    0.32528373398242

