40
CSD_code = FEKHOV | q = 0 | S = 0 | Stoichiometry = C13H23IN2Pt | MND = 6
Pt        4.16758055609487    4.23206881035846    5.73568601097498
I         4.77517079412517    5.96950705082283    3.71452052089733
N         5.20356400423324    5.66763398677976    7.08418045389927
N         6.40963466358611    3.60727941446524    5.65320240659601
C         3.20761130870831    2.83607994739803    4.54632061667431
H         2.19449289591454    2.61476499567793    4.88656180457491
H         3.75669629537919    1.89220163743573    4.53521255557780
H         3.13911968844883    3.21074209792653    3.52199936089402
C         3.79079249402721    3.04014863807544    7.38200135392672
H         3.39749514328194    3.65170343652917    8.19659935498586
H         4.73919501185628    2.61219458941696    7.71344425187806
H         3.09087874442627    2.22506673548729    7.20780701319459
C         2.29384035510495    5.07130285861553    5.89856726450641
H         1.67940213379889    4.61774135153516    6.67616031881709
H         1.75799214121033    5.01405757615728    4.95049856017535
H         2.44914713134100    6.12851656678189    6.12713064104387
C         4.67277727225107    6.64890923455893    7.79679181809076
H         3.59508021025953    6.65284311035447    7.88911164715058
C         5.42991613853175    7.63663405170850    8.40484935367173
H         4.94552566653973    8.42075760928690    8.96418922469358
C         6.81006017512537    7.59671949691155    8.27051092340995
H         7.43244081185075    8.35651287395407    8.71810766657411
C         7.37069951828597    6.55773035347286    7.55311497461727
H         8.44002784098401    6.48059930304433    7.42915214602876
C         6.53513747546373    5.60262290013635    6.97083220984722
C         7.11198129022067    4.49789519288732    6.22501167909459
H         8.20062725676141    4.50103992619142    6.19746412079287
C         7.03448235984521    2.51001216548502    4.93389758671338
C         6.50576668953282    1.21435431121398    5.56476603234002
H         6.90173059769775    1.09799149186876    6.57242382149402
H         6.81477472926013    0.35968997622796    4.96900686163347
H         5.42174937883389    1.22915639800674    5.62225186693712
C         6.59835590591989    2.61716992449862    3.46765931120176
H         5.51841763310159    2.68044507277247    3.38954876607070
H         6.94036788194183    1.74543248792490    2.91590676014764
H         7.02471122251009    3.50917467420059    3.01375762825325
C         8.56749109171549    2.48278929425451    4.98119868602318
H         8.99857189816576    3.35817754973604    4.49877912993888
H         8.90908175275850    1.60469612038205    4.43925171664863
H         8.93861184090558    2.40993678745804    6.00282358000984

