59
CSD_code = FEKMOA | q = 0 | S = 0 | Stoichiometry = C20H28B2CrN8 | MND = 4
Cr        7.50270788587169    3.60953888147421    7.18534055165276
N         5.34699482810514    5.52119743046121    8.27964484710872
N         7.56083991157802    4.25909335377866   10.29579492307101
N         9.25031056157333    3.18732630496576    9.48852014745900
N         4.65829855635557    4.00211502122879    6.89728294603560
C         8.46306523070744    4.09774367044540   11.32221165474236
H         8.28139786869069    4.46679862526530   12.31156403544478
C         8.03887963549512    3.68016774433437    9.15773091694254
C         9.51538788956454    3.42525187782126   10.80379673982481
H        10.41942645191968    3.10608082433820   11.27844970398839
C         5.76842636442980    4.52852380139304    7.45292055828105
C         6.17331004573991    6.06812915542887    9.31243428694101
H         5.70013114785138    6.97020376205142    9.70737979875103
H         7.15335383286409    6.31478331664088    8.89191958484266
C         6.35485350195235    5.02759755081553   10.44137293060710
H         6.40160638111698    5.53228297694235   11.41034552338336
H         5.47816489060595    4.36693888274210   10.44319772455881
C         3.97106777816998    5.59888400677822    8.24615168557269
H         3.42181908063671    6.31371007429949    8.82480912824553
C         3.55806571625294    4.65475067680172    7.36783554334294
H         2.56594465770779    4.40600974138323    7.05269441466291
C         5.37795378164831    1.52981909669354    6.85842559364354
H         6.24181756655939    1.87376165441395    7.46049817301030
H         5.71205074472956    0.70625364798601    6.22813759380843
H         4.65151902751081    1.11972814845397    7.55900439816899
C         3.29323679805181    2.38273383281176    5.33513919754788
H         2.59094071005927    2.07081975122075    6.10597807620415
H         3.36936010797586    1.55388887554671    4.63396325015198
H         2.83779128160507    3.21735362102276    4.80345046276330
B         4.73971652973112    2.74771118115873    5.97230094042365
N         9.65840991079194    5.52120235778556    6.09103052307887
N         7.44455271125071    4.25909936201269    4.07489048904211
N         5.75508258157001    3.18732800891465    4.88216380047011
N        10.34710583653919    4.00212430490909    7.47339657251857
C         6.54232893534080    4.09774702168695    3.04847293221282
H         6.72400099036882    4.46679373543132    2.05911833172846
C         6.96650368036053    3.68019057658929    5.21295915289650
C         5.49000470572529    3.42525711840860    3.56688788216263
H         4.58596959452428    3.10607934781367    3.09223257082493
C         9.23698009148917    4.52853131232603    6.91775701487157
C         8.83209196754855    6.06813085453587    5.05824189134759
H         9.30527094586291    6.97020408829602    4.66329420903534
H         7.85204870635065    6.31478601064702    5.47875801064209
C         8.65054472897130    5.02759517646951    3.92930810865172
H         8.60379288482758    5.53227750858304    2.96033425723423
H         9.52723274198333    4.36693579082432    3.92748656056041
C        11.03433723962776    5.59888837179018    6.12452303316106
H        11.58358592581896    6.31371267001305    5.54586398684146
C        11.44733914307855    4.65475657488841    7.00284141428936
H        12.43945978734338    4.40601425485611    7.31798289995993
C         9.62745413013250    1.52981369773701    7.51226988255606
H         8.76359223466585    1.87376126647967    6.91019996438829
H         9.29335340194936    0.70624290731133    8.14254956026100
H        10.35388426965096    1.11972840441283    6.81168385622603
C        11.71215840347698    2.38272787294943    9.03553583705086
H        12.41446033360125    2.07081565192962    8.26470121542229
H        11.63603797969975    1.55388591397842    9.73671648431915
H        12.16759723856835    3.21735069774724    9.56722341932173
B        10.26568013381868    2.74772165197199    8.39838080774347

