129
CSD_code = FEKNOZ | q = 0 | S = 0 | Stoichiometry = C50H73N3O2Ti | MND = 5
Ti        5.48292020565556    2.06538057408712    4.28787582738661
O         6.04133824125018    3.77763566466014    4.25129541377151
C         6.54651540992601    4.55104010085559    3.31364186205769
C         6.59069151130215    5.95884689648712    3.45640922894120
C         7.18730023229628    6.71490259096366    2.46054332187988
C         7.75281546615043    6.15762928366473    1.32075369609344
C         7.69019572313437    4.77759689741112    1.18962189261797
C         7.09921712262227    3.97617952829284    2.14960471754730
C         6.97482960992929    2.49602803624217    1.87831375105298
C         5.98198869283348    6.60526564019572    4.69824188184725
C         6.73325709040210    6.10315404500038    5.94030057042894
C         4.49587550112059    6.22601994741645    4.79082437958949
C         6.06960574819265    8.13518234087243    4.68811331022552
C         8.41071709087063    6.98691253754183    0.22773773149062
C         7.64376060438871    6.77933900288965   -1.08588577721190
C         8.41857512380853    8.48538695153494    0.54226104066520
C         9.86701838011709    6.53177220563326    0.05550732850242
O         6.02465151144422    0.68311395911422    5.31154881398061
C         6.45920302639322   -0.52516507117578    5.02064620308302
C         6.41960872259001   -1.57498789405392    5.97030550571671
C         6.95655537388328   -2.80653353211249    5.63269084261756
C         7.53863428064019   -3.06726703119403    4.39874034993968
C         7.54951327039841   -2.03550918727407    3.47110576941432
C         7.02047709694737   -0.78858664810264    3.75281822954275
C         6.96648795652933    0.23151578694114    2.63955129104394
C         5.78005811742140   -1.32672170111693    7.33414746434817
C         6.56293873578866   -0.22393508520945    8.06210932108252
C         4.31909270660499   -0.89433750160119    7.13352226403721
C         5.77635162051642   -2.56622226452277    8.23537332614462
C         8.13415834399370   -4.41760096585496    4.02810827077138
C         7.35573747487293   -4.99747838306819    2.83872898092361
C         8.07250857493450   -5.42919394842184    5.17585482425115
C         9.60823141272222   -4.23101549862404    3.64098134543831
N         7.11926006646575    1.63056690373741    3.05645983401530
C         8.37613623665660    1.86465958316310    3.77924931358168
C         9.67110563623952    1.66579729378015    2.98030729647773
C        10.87966682028868    1.91775021377271    3.87442837224128
N         4.25403711530288    1.65565656818460    3.18176555793749
C         3.36666898826362    1.37127859328965    2.23548076103105
C         2.87543900937891    2.38181473621963    1.35433446647843
C         1.97875040847125    2.05027114791680    0.35952828967505
C         1.53019807934136    0.74921797048897    0.19581355152173
C         1.97113295749395   -0.23717056606682    1.06392265112815
C         2.86767457568899    0.04336298460024    2.07410059899123
C         3.32790680030009    3.80974903034697    1.56239549230724
C         3.97425453384689    4.40184960459568    0.30801380301683
C         2.15371727145236    4.68255406056215    2.01463331833954
C         3.31372609320686   -1.02146888267661    3.05071570315062
C         3.95664961650630   -2.21933629002918    2.34886759501326
C         2.13683653293357   -1.48302584532309    3.91450927360927
N         4.14611806324212    2.61519305150693    5.86146204417456
C         4.67759013653283    2.97422298303922    7.02590541432756
C         3.91029768556600    3.28471529959617    8.13703801359328
C         2.52867558715589    3.22008282585261    8.03135306032270
C         1.97507041317620    2.84741824148501    6.81431297205775
C         2.82059628550235    2.55282029575390    5.75647076358409
H         7.21430957249378    7.78250359402298    2.57816929313302
H         8.09980526623118    4.29895668327001    0.31077174694031
H         7.70734985300270    2.21061278305742    1.10406555840714
H         5.96774201203489    2.30359642559566    1.47518040647664
H         6.29090752277817    6.51699946077016    6.84530886847997
H         7.77788908112011    6.40702732567284    5.89397610953545
H         6.68879422161988    5.01845524276632    5.99558344157823
H         4.06109596863343    6.62119653178002    5.70832959061763
H         3.95529844021762    6.64416447855805    3.94440921200869
H         4.36538455948590    5.14408618395031    4.77934277281688
H         5.60455598375610    8.52487897446520    5.59214637257008
H         7.10329408676104    8.47316350202128    4.67195802750432
H         5.54312407141405    8.55402881871817    3.83377978222159
H         8.09023192440724    7.37229772919256   -1.88174238362348
H         6.60665420466122    7.08491343127099   -0.96625138688445
H         7.65511356153460    5.73629516969364   -1.38906023430100
H         8.90931556728124    9.02321452029010   -0.26681600823409
H         8.96396952036732    8.68957547267879    1.46080363173938
H         7.40611682876247    8.87098175224120    0.63464179196723
H        10.36056739169145    7.12804623121167   -0.70938003087290
H        10.41028882903898    6.65116111669867    0.99073202065401
H         9.92264212144285    5.48791907679158   -0.24014475035891
H         6.92152662793861   -3.59517465653855    6.36147454702699
H         7.96915731506751   -2.19777045437266    2.48793526438283
H         7.72713184978607   -0.02571628537370    1.88255092308688
H         5.97787257125384    0.15779811693732    2.15987286288424
H         6.10283321657054   -0.00332901468710    9.02423612917304
H         7.58915263709170   -0.54511506043583    8.23339364484695
H         6.57789487233011    0.68498481734329    7.46621957244642
H         3.86916019972050   -0.62501542381784    8.08865123484086
H         3.74806074212090   -1.71293417186225    6.70104461011762
H         4.25222863908774   -0.03966827772594    6.46048640014244
H         5.29111620707468   -2.31955778030295    9.17829435444200
H         6.78804969171782   -2.89844435484068    8.45690470975473
H         5.22351845614195   -3.38368028924430    7.77869793669824
H         7.76157710572229   -5.96753888312999    2.55832335742318
H         6.30803845983362   -5.12385717488958    3.10249489145526
H         7.40898691456513   -4.34135494436258    1.97467813631774
H         8.52404112647522   -6.36701137383918    4.85755473795637
H         8.62049354506908   -5.06956852099992    6.04372783643002
H         7.04379486080579   -5.63365813714772    5.46252776683257
H        10.05778979644756   -5.19075895683726    3.39400087056069
H        10.16096114507169   -3.79360911268222    4.46989330486522
H         9.71108167803131   -3.57690727132562    2.77986237665793
H         8.36349997489360    2.89642497761470    4.15266987422471
H         8.39665804654949    1.18405095093765    4.63959374906688
H         9.70364467941092    2.36123487303998    2.13984630073701
H         9.72352819342144    0.64609344855603    2.59463380724982
H        11.80238030556741    1.77871363497879    3.31626572176940
H        10.86378965601150    2.93510444570531    4.26000636503012
H        10.88277181335032    1.22951903956853    4.71722961342962
H         1.61398291158238    2.81994145786002   -0.30751888557117
H         0.83259995522470    0.50858604357101   -0.59336263869602
H         1.60027757502850   -1.24648487464591    0.94519491778464
H         4.07680756269318    3.79682565017814    2.37169292188764
H         4.42710235819272    5.36477241971035    0.53767941921770
H         4.75245327028226    3.74350606335477   -0.07172837662250
H         3.23494608538195    4.54502112922856   -0.47730443418475
H         2.48208155790213    5.70862475957671    2.16937446596579
H         1.74041302852044    4.30612987041994    2.94869175132990
H         1.36492560791657    4.68345435735611    1.26496450611307
H         4.06310473053191   -0.55873128454388    3.71279914104273
H         4.40040682027860   -2.88936990526790    3.08295566238242
H         4.74126931879501   -1.89211619889829    1.67027858173705
H         3.21771651307186   -2.77415260536846    1.77451287627904
H         2.46205546301343   -2.24599247777212    4.61947498012307
H         1.72772438100273   -0.64399371697478    4.47440989798411
H         1.34629981154528   -1.90204488466303    3.29512998696193
H         5.76203355128087    3.01482026604679    7.07035764205598
H         4.38385629056507    3.56998596563891    9.06365846093117
H         1.89908391632109    3.45458443617216    8.87664940367477
H         0.90567485246892    2.78490344406208    6.68805536448069
H         2.44345462985491    2.25187433869962    4.78319849711328

