85
CSD_code = FEKNOB | q = 0 | S = 0 | Stoichiometry = C30H43B2CrN9 | MND = 5
Cr        2.13865613434366   16.18316465382501    6.74711815700942
N         3.51865304455159   16.82651612273812    4.11297035368478
N         4.89216748212934   16.29727679470559    7.97362083585988
N         1.75676548013528   18.03488816729411    4.39623461602098
N         1.90435421349741   13.29321194745221    7.40985992758930
N        -0.31667434307315   16.10890469620429    4.82930869174283
N         5.03973019927904   15.97257243464519    5.84895308112881
N         0.32864945287953   14.17331535608586    5.54493840352974
N         3.16396658940779   14.20566202747738    8.91342363558762
N         1.41861808017242   17.16321948355460    7.85422847239629
C         2.35856750349117   14.47589377507012    7.84332820739500
C         2.52362163994079   17.08057791683958    4.97328787905419
C         0.63010182254989   17.81958470388098    8.81795157159116
C         0.51037687162774   15.48741382582545    5.72313997936215
C         4.16254070486928   16.17478286782531    6.84082331848278
C         2.26690256634564   18.37289954282415    3.16861367768793
H         1.82067145693957   19.11619562426343    2.53904681802340
C         3.87819946364087   14.28653609519290    4.29346663040029
H         3.06196778015580   14.23213776043461    5.02345636109060
H         4.56498057507258   13.46984917513443    4.51120884256885
H         3.45281846642358   14.09397602390171    3.30901244289001
C        -0.58635261555511   13.96063494751559    4.55494638440852
H        -0.87533656460331   12.97971739070529    4.24284573062953
C         0.79074431103561   17.15200307846169   10.20361040470276
H         0.54209864119640   16.09391999918734   10.10321840571256
H         1.83098919462565   17.23190973834395   10.52214787475024
C         0.52816174798728   18.47000948478547    4.98462823715251
H         0.27052154825666   19.47226098776813    4.63074557483158
H         0.68017745957839   18.47569128924090    6.06762211776521
C        -1.74391813882421   18.40406853641703    9.46886407872852
H        -2.79270409134227   18.32732886128332    9.15862591297645
C        -1.56373573635266   17.72285190323719   10.82267702592375
H        -1.85246350903083   16.67242225331426   10.75068256257122
H        -2.20287882326879   18.19866557898570   11.57018282750283
C        -0.86225165039285   17.72301864324201    8.42560376114976
H        -1.00753057135960   18.20343241601412    7.45773305184805
H        -1.11765749677608   16.66728534319871    8.31999135204603
C         4.27071280852388   16.44382810663419    9.25257591083258
H         3.38134015929110   17.06188078175849    9.09918172932679
H         4.95488869946662   16.92954864083629    9.95413332881783
C         6.22790741165517   16.16343103382047    7.69325965884829
H         6.98891469123854   16.23333128975762    8.44420358366611
C        -1.35315681394361   19.87780867100292    9.57793826145533
H        -1.98856950916004   20.37833745862887   10.31221653894554
H        -1.49856207712184   20.37359709641310    8.61534441428812
C        -0.10017615466872   17.83133257245703   11.24105430494680
H         0.03972143525219   17.33927736132495   12.21098653307959
C         3.37486150011640   17.60930740016339    3.00494315704293
H         4.06016410541462   17.57449363757854    2.18417812662924
C         5.85974266479779   15.91064273877960    3.35625677431379
H         5.55416846979253   15.76643088188877    2.32171291654061
H         6.62886860936432   15.16526010846199    3.54925186757482
H         6.33146559635176   16.89094459403044    3.42363644768849
C        -1.00145337737812   15.16477970704242    4.10532642492454
H        -1.71356657105256   15.42430583191048    3.34803054442820
C         3.85628269142955   15.08439658254220    9.83074377293641
H         4.75393801722446   14.54869266430608   10.16173744002911
H         3.22475290878035   15.26058326337444   10.71145274425833
C        -0.61546060893468   17.51002954373444    4.63253664821936
H        -1.49811805217075   17.78228674739071    5.22673442658833
H        -0.87300196646988   17.63346330609495    3.57389552953252
C         6.30653734298251   15.96210551465748    6.35496362847967
H         7.16960339293795   15.81593927013045    5.73994131692399
C         0.11128075262168   19.98397696993005   10.00209518457126
H         0.39057100602964   21.04099514163189   10.08454140476545
C         1.00322480092606   19.31152624916022    8.95921144568008
H         0.88907149153444   19.80549624535435    7.99131751463528
H         2.05425219466905   19.39048549570108    9.24808851743735
C         0.29358290582380   19.30355630933177   11.35797372085358
H        -0.32886304512759   19.79751886624582   12.10759038529419
H         1.33451673663403   19.38677308178698   11.67890374818064
C         2.40432635762075   12.29158940259116    8.19050890885646
H         2.16387378603134   11.26160451866954    8.03183907232751
C         3.19022360476247   12.85120275687487    9.13565545381727
H         3.75188530981870   12.40822963220874    9.93326927259273
C         1.29201729175174   11.77599148144185    5.36446808520944
H         0.47286118008479   11.14416268864387    5.02490308898475
H         2.02414811943723   11.11106848841309    5.81692885028866
H         1.76264741158257   12.19293641825474    4.47580691678003
C        -0.52086286123882   12.50770652112102    7.28844322409000
H        -0.80263214162787   13.30292879084866    7.97901316625777
H        -0.32778324218554   11.61715834712145    7.88307226845853
H        -1.39118159890293   12.29530729281440    6.67046768740353
B         4.60550361498726   15.74514423867547    4.37398657829178
B         0.78023206146375   12.94500681158149    6.38976226910860

