80
CSD_code = FEKNER | q = 0 | S = 0 | Stoichiometry = C29H39B2CrN9 | MND = 5
Cr        1.49465224837587   24.70458350080232    6.70569640007086
N         1.72506561692671   24.26450268692141    3.77624188062991
N        -0.25995880817308   26.97376853576016    7.66600946378798
N        -0.50677358674190   23.53222845724674    4.86840134918296
N         2.33181825354526   23.69377103890483    7.70051711029624
N         1.85877484809538   27.70711365954982    6.62982236690456
C        -1.43483629394262   26.12714175389346    9.32480318962892
H        -2.09386275149338   25.93583874889881   10.14753768119061
N         3.75376426992863   26.67641128581298    6.69204263868108
C        -1.28319226303965   22.87365789111877    8.30517709059967
H        -0.96639578075460   21.84225127474932    8.50914817264061
H        -2.34577569734676   22.95798558457505    8.55975553168468
N         3.69110692708278   24.77906710629190    4.52022357222377
C         3.01504629264847   22.84096153983403    8.47089978958511
C         2.41412863447839   26.49100225075101    6.67580571468637
C         0.12965600618568   25.70036524522593    7.79495702885182
C         3.49382265729239   23.21318264458721    9.74835450447941
C        -0.11658053722082   23.58446975649923    6.14775350647942
C         3.98291874444149   20.64816653485688    8.79429992828840
H         4.17560474169348   19.64819479099073    8.42933894077014
C         3.27411517264543   21.52697172984302    8.00307473375710
C         4.20125567866712   22.29615850584503   10.50625595132853
H         4.56104088882719   22.59699780927841   11.48113737472990
C         2.41835398614101   24.46316535303754    4.90428007006156
C         4.45794682209515   21.01159572423648   10.05148889860155
C         3.23311534112403   24.59476869224396   10.27826060555426
H         2.62488881279246   24.54616762694910   11.18132947536840
H         2.70929820988596   25.19412847522640    9.53253328313104
H         4.17036839146028   25.08664144696165   10.53599460818008
C         2.53978649595092   24.44537932623217    2.69643717084274
H         2.19806766531755   24.33041045838439    1.68977953437686
C         5.23679082116295   20.03213319318806   10.87753169450814
H         6.20744078058860   19.83828137137575   10.42013475137842
H         4.70806833256271   19.08259235828034   10.94710934948011
H         5.40154083245378   20.41471766797451   11.88174172820512
C         2.76118264590180   21.14133518997505    6.65133060908743
H         3.19213196421338   21.79015306630313    5.88805750781815
H         1.68134357115356   21.28633023858568    6.60578949240833
H         3.00014115738665   20.10572755995701    6.42329741645533
C        -1.22038116389001   27.24966723769558    8.59460956600833
H        -1.68187408769063   28.21142817856812    8.67616252775310
C        -0.08137110436015   29.46323730172088    6.84883495782264
H        -1.15951229839810   29.60760007764815    6.81855957316175
H         0.33344332501102   30.12369615808306    6.08998130095302
H         0.26819728550263   29.81970515664779    7.81754839759160
N        -0.58614440769461   25.17704804113874    8.81638230764876
C         0.53736888850899   22.14016138347540    2.99227752502634
H         1.06924705217198   22.12539565847970    2.04326333015505
H        -0.40313382303885   21.61541665178509    2.83636606729102
H         1.12145642618618   21.55030237444228    3.69852850699279
N        -1.17637080726796   23.14128459454292    6.88842692263799
C         2.84119955351065   28.65324536249904    6.60991370637684
H         2.62947902966573   29.70124442752253    6.57119170133227
C         4.03857181105082   28.01757106304355    6.64898448798071
H         5.03972007929567   28.39883297410156    6.66075955052255
C        -0.46984120801541   23.80576298441179    9.21604658405818
H         0.58541644508554   23.52678077326386    9.16588956651267
H        -0.82776972027467   23.68750711525358   10.24218574537651
C        -0.19084423209517   27.34653406060486    5.12585666817583
H         0.12826521370711   26.30255640556292    5.00375145733795
H         0.21741464169332   27.91287241643958    4.28995309780163
H        -1.27594019188929   27.37207021327542    5.03220611687732
C         3.77193995971661   24.76258601406214    3.14987213881921
H         4.68119997484120   24.97017145415768    2.62275068573304
C        -0.53501237156766   24.61195984700882    2.50902165305361
H        -0.91974784424534   25.50752124740202    2.99269514258705
H        -1.38850215184007   24.08968990903246    2.08119543912954
H         0.06758963091506   24.94588143853249    1.66778148763789
B         0.31688820876133   27.91602265876018    6.56798877147441
B         0.30471032646644   23.66663484460295    3.54474131326528
C         4.68330177272930   25.58574186973834    6.70094770514251
H         5.65106852823421   25.92866639283763    7.07664588226239
H         4.29210454994837   24.81134608478388    7.36517833039662
C         4.89097132742261   24.99383449929989    5.29939116900726
H         5.42752652499107   24.04237502647628    5.41357322579477
H         5.52458008916841   25.67091261963683    4.71467351071597
C        -2.21563386130026   22.81851507089154    6.05170902479155
H        -3.15066156442741   22.44013679226642    6.41274242993930
C        -1.78999254006064   23.07304430036058    4.79507421148953
H        -2.30678835883740   22.95841923879690    3.86628809743059

