36
CSD_code = FEKPUJ | q = 0 | S = 0 | Stoichiometry = C14H14Cl3N4Y | MND = 7
Y         4.80987124876950    5.58866462780908    3.23326321847357
Cl        6.40880952621284    6.14523508566168    1.35132692501842
Cl        6.37222175544428    5.32989810658117    5.17714037086186
Cl        2.57193949689854    5.10428940214733    4.31574689786662
N         4.99215809182225    8.07859706364783    3.82640680741689
C         4.28576579682712    8.94498457474320    3.07990254705973
C         3.34044566898488    8.37441500223510    2.12190969324273
H         2.70401659841396    9.07539689192809    1.56925276912365
N         5.05700535537145    3.04345651790241    3.09392469342870
C         4.36878845317760    2.40819481109550    2.12972789592134
C         2.35616564875675    6.50229649549899    1.06786063030734
H         1.90722078086988    7.21352574864185    0.36016935241499
H         1.57043955510579    6.05657187511600    1.69187371781066
N         3.69649621956679    4.50134744589004    1.26737867580150
N         3.28189761747903    7.12144093234211    1.96613820293750
C         3.07673342399752    5.37039232702610    0.31440694629511
H         2.37882970487342    4.84439907009073   -0.35226844423660
H         3.88958204004426    5.81111564214398   -0.27751776983967
C         4.43668318744783   10.32413559425678    3.19902288908982
H         3.84991252922215   10.98681373954595    2.58116461373703
C         3.68568765404757    3.24350326883749    1.14362329761099
H         3.18607479621350    2.72948564198624    0.31417466440797
C         5.86292967239598    8.56409623543946    4.69994073250415
H         6.41370899228433    7.83402138373573    5.28397616388000
C         6.07763689650144    9.92706276435288    4.87701438684081
H         6.80106881485272   10.26764433028046    5.60030851735845
C         5.68572443272983    2.31322447803077    4.00422004590493
H         6.23039123695248    2.86147174865868    4.76596899674602
C         4.29953776008324    1.01919242506620    2.05811316640706
H         3.73584126967261    0.54690732532283    1.26796353013994
C         4.95686850647499    0.26331463816111    3.01562237155770
H         4.91601584795854   -0.81530589579814    2.98573145899916
C         5.35151892244839   10.82337470407010    4.11240844151272
H         5.49168677042150   11.88844948479099    4.22168102697426
C         5.66361664342915    0.92234406877303    4.00627450359069
H         6.19120908424817    0.37754244398806    4.77264806283517

