75
CSD_code = FEKQEU | q = 0 | S = 0 | Stoichiometry = C32H20Cl6N7O9Y | MND = 7
Y         1.34193644453561   12.33769998988648   15.84162625169950
Cl        3.10669761447896   11.88531543919633   18.43105814785860
Cl       -1.19371402878041   10.94528244336362   15.58728376283244
Cl        3.44913805300421    9.26173674090297   12.92911164453416
Cl       -0.48511481507818   12.84728419765927   13.00394695023519
Cl        1.20146047313496   16.77003204003036   17.52761668381022
Cl       -0.38953296363125   12.89913212576232   20.48330757829507
O         1.39359527172420   10.99392843203301   14.08919146553947
C         0.60437027177305   11.90288437149377   12.05504043562634
O         0.22234357106270   12.24841793063876   17.68362641539892
N         3.66714793470086   11.91029760575369   15.32382619740326
N         2.25792409709401   13.88338729664985   14.15333235120614
O         2.22214501831392   14.10588569318104   16.85932196294895
N        -0.11828744516481   14.33777871454257   15.45408515546518
N         2.09541645916131   10.00508654285016   16.48734040525809
O         2.46766937794446   10.60467845896511    8.00585005043436
C         2.37633556468547   10.28867658798135   12.04714107984766
C        -0.91568793037827   11.81571332607267   18.08037573920431
O         2.81750496826679   14.37381738612961   23.01673348705568
C         2.68045900893565   13.42446563100831   19.07984924043141
C         1.80258959563441   15.60758557053921   18.65095174044562
C         1.84661034265079   15.89873705156498   19.98907278611563
H         1.51514669773109   16.85347784181024   20.36842757539141
C         3.34873795920996    9.69710218487715   16.11419664882558
C         1.74395301706255   15.03926956741345   14.10747224292419
H         2.24109118703281   15.88484401655270   13.61899027675716
C         3.56372067686268   13.62780285013497   13.61665799268670
H         4.05800324404054   14.54001003144771   13.25316857200515
H         3.45182761615082   12.92348955713591   12.78335904961120
C         0.44711455516959   15.31415347665207   14.72113746020422
C         4.14810126892759   10.75117743853872   15.49008549160115
H         5.16890703417786   10.48617157969015   15.19506205486531
C        -2.61320405530655   11.51807162368906   19.81721799063116
H        -2.95934225062782   11.66805713923837   20.82829716615811
C        -1.27732015237671   14.59660528981514   16.03980160405319
H        -1.71577036510107   13.79967584650727   16.62819860026453
C         1.45538313726655   11.05340109371795   12.81731883853482
C         2.22597532883658   14.36172132993529   18.11257431315137
C        -1.39834794064621   12.00662191567299   19.40668373641782
C        -1.35943939556443   16.82061865623635   15.17706485490841
H        -1.83595744589158   17.78323959072020   15.07413739707898
C        -1.79366902972010   11.11269488290655   17.20951788108851
O         1.99195429470295   16.32367140085815   22.63901153355315
C         4.42297671028844   12.96385560684953   14.71276555510199
H         5.37502603454725   12.61465430589161   14.28824620626092
H         4.61823464336632   13.71060359206822   15.49221336211660
C         1.57658497869742   11.21174488751175    9.99715474872673
C         2.73832861816159   13.68472256054509   20.42209334759293
H         3.08367255874668   12.94721023453652   21.13005556298517
O        -5.01196674084973   10.50388565671441   20.49679575641475
C         0.64939657256477   11.99293273621278   10.69027780947475
H        -0.01121407734913   12.64591544475496   10.14140300749795
N         2.38133905241090   15.23127648741181   22.27231210261828
C         2.44157607147470   10.35465602467196   10.68009937860203
H         3.14984600162079    9.76243497322604   10.12084185012169
N        -4.68069432779443   10.30505347279220   19.34569004343218
C        -3.41841113117422   10.81734897879758   18.91654526000484
C         3.11833682874109    7.44718491324982   16.90187084973796
H         3.51283996296852    6.45453564884361   17.05654552623064
C         2.32640318075019   14.93750819741534   20.87971572953199
O         0.90051147102094   12.07855750960075    8.01815194811277
C         3.89245799484320    8.42889539344969   16.30526530029035
H         4.90113903395406    8.22106325981231   15.98339618135619
C         1.83206069592183    7.77201306174618   17.29726917711127
H         1.19280343255430    7.04521377501170   17.77224431092192
N         1.65069452140103   11.30119323549848    8.57695331629436
C        -3.01191746149283   10.61764962933452   17.59765729453012
H        -3.65477873618707   10.08633525075664   16.91349179489159
C         1.36980653285597    9.06290358316385   17.06797260082026
H         0.37060822388341    9.34215637151713   17.37949275608495
O        -5.34935399624468    9.69785979544348   18.53194164229687
C        -1.93459326712139   15.81761544368983   15.93665310178021
H        -2.87151676129756   15.96954409002710   16.44789917035958
C        -0.14759443054379   16.56255373162498   14.55698070265273
H         0.34002554329013   17.31772125800240   13.96023379367349

