48
CSD_code = FEKQUI | q = 1 | S = 0 | Stoichiometry = C20H23N4Ni(1+) | MND = 4
Ni        1.88332337403666    1.81699811961114    0.21770208564929
N         1.51344130821477    2.59348253617630    1.86451532747196
N         1.65210500413731    0.07916001723413    0.83467213196262
N         2.38202064200373    1.04281375977923   -1.51615643057247
N         2.23760037329593    3.62772302825592   -0.45966306554058
C         1.87400475516356    4.56425497136954    0.59059539946616
C         1.87374697341295    5.93162503105824    0.38763277725501
C         1.51615246655563    6.77193241166846    1.42806188185831
C         1.15456807341631    6.22903769791624    2.65055318295460
C         1.13915846321168    4.86190274260874    2.85185878983551
C         1.50564433052748    3.99690737793286    1.81592942841239
C         1.28747166581728    1.95502563573393    3.00164615383071
C         1.22528282982383    0.57696021567288    3.15657342984086
C         1.39947924631229   -0.28432324275106    2.08133185255350
C         1.77775122269011   -0.88161654294758   -0.18172177197130
C         1.54073226756842   -2.25463135071416   -0.06157003661437
C         1.68230778326411   -3.08010758608161   -1.16065751683908
C         2.04615044380756   -2.57385536918970   -2.39822747393243
C         2.27841978753196   -1.21641397312513   -2.53870833648008
C         2.15208828817799   -0.39019955869982   -1.43754911153441
C         3.80883907198559    1.35600063286170   -1.76220910535912
C         4.02235806880871    2.84859135613131   -2.00845502610837
C         3.67696624172913    3.71447063253694   -0.79800444432708
C         1.01832170656674   -0.00539469771858    4.53014059407425
C         2.35742650754607   -0.32191764338549    5.19874975739339
H         1.85517016707737    1.39419229115857   -2.32361133028040
H         1.71561009833434    3.89430243614591   -1.30209474913006
H         2.13687760780328    6.34220518959014   -0.57648404968261
H         1.50769054900316    7.83954610106031    1.28128814645083
H         0.86444667405846    6.88118295874887    3.45919791639053
H         0.82195020581771    4.48751649417045    3.81084866760193
H         1.14113922131312    2.54484105077846    3.89973167171904
H         1.32724990959618   -1.34351712442167    2.30209464714515
H         1.22919824633022   -2.69176855600068    0.87240344118636
H         1.49149719046682   -4.13611134472297   -1.05165703285398
H         2.13741955970487   -3.22841995025423   -3.24950040530190
H         2.54255997785768   -0.80721106752245   -3.50304567264538
H         4.38374547632661    1.02935338657821   -0.88803915165142
H         4.16996858527386    0.79449531281724   -2.63157554852855
H         3.42757590065603    3.16754510574308   -2.87009465178929
H         5.07146161716850    3.00896830958668   -2.25747702129888
H         3.94852709102396    4.75453504913325   -1.01237107538784
H         4.25143031030470    3.39011976442190    0.07734951928871
H         0.46439669740641    0.69932149738429    5.15101608168068
H         0.42769374369326   -0.91962959547894    4.45772244636292
H         2.95680239877637    0.57994623612100    5.29884834092753
H         2.91929990265285   -1.04223434297979    4.60894984712140
H         2.19432797374835   -0.73930540399191    6.18835948939602

