67
CSD_code = FEKRES | q = 0 | S = 0 | Stoichiometry = C26H33N5S2Zn | MND = 4
Zn        1.54362560793800   12.01695806537104    0.99577861983828
S         1.49250845813918   14.20958536610853    0.16168659334452
S         0.19507409224239   10.40488741891765    2.04101832467355
N         2.94931860933353   10.85900276968127   -0.11424051030359
N         3.10031601627055   12.27404082779222    2.60745517498733
H         3.56346216204932   13.18621235331338    2.52320231832936
N         3.59971341015327   14.77236581506525    3.81928899094392
N         4.27107469496034   10.76425188399369    0.07597640308702
N         2.25971293658668   14.72479692641763    3.80677314627256
C         2.65815530485517   10.18859487140205   -1.22216930966516
C         3.83416005544277    9.66374036007423   -1.76612194504354
H         3.93027304099666    9.08078556356264   -2.65868909008186
C         4.84903284945150   10.05508189883036   -0.91480498322282
C         4.92360632204475   11.39068031704816    1.19642703686998
H         5.07807260543046   12.45548067231059    0.97914486762687
H         5.89955190274317   10.91585209082970    1.31063132977303
C         4.13517189982836   11.25135905401777    2.49971176745031
H         3.65662118916557   10.26845549242978    2.54381565300312
H         4.84037247140021   11.33400352916882    3.33981452119850
C         1.26397775392741   10.05600172758814   -1.71126212549263
H         1.25133027140988    9.61432432508044   -2.70389315920012
H         0.77561925900619   11.03011709719122   -1.74310440089806
H         0.69367905754956    9.42262503680527   -1.03195918328311
C         6.30965878775195    9.80644610588820   -1.00054536018920
H         6.52626803005952    9.24332774579679   -1.90359960888164
H         6.66212927312355    9.23187474572561   -0.14386470685446
H         6.85733669764531   10.74767620619592   -1.03530768249222
C         3.92882711050155   16.03181376743116    3.56973842900411
C         2.77261176379076   16.80638948812161    3.38712880573850
H         2.72262931882292   17.85233595209741    3.16391244608098
C         1.71632538651060   15.93224579852905    3.54000542521898
C         1.55355841967416   13.49378134843867    4.05141127968070
H         0.74393114076869   13.40454677491226    3.31903619062263
H         1.10586493942918   13.50863314975318    5.05286929327551
C         2.49322706097448   12.29989254386533    3.93952813859861
H         3.27103794696855   12.38025588217648    4.71068060563640
H         1.92489629811037   11.37969630507244    4.09238564496300
C         5.34971478615043   16.46987189594184    3.50734817240091
H         5.57256288868025   17.14375245644496    4.33417167093724
H         5.54402486319626   17.00259771634122    2.57731353594314
H         6.00544441625555   15.60521811338864    3.57281319229953
C         0.25432236464292   16.13279615976229    3.40312068563702
H         0.03254021831719   17.19401315507823    3.33590088716576
H        -0.28463039912581   15.70547854844365    4.24804177519831
H        -0.09619521516961   15.64648745002456    2.49173766747115
C         3.12971325264657   14.13009296812674   -0.48354154641828
C         4.16166763614024   14.79464510119933    0.17081340745801
H         3.94091275643673   15.36031151797534    1.06329324203556
C         5.45214469191851   14.72779399797833   -0.32251363768170
H         6.24928492461554   15.24308507106945    0.19479012757532
C         5.72439311488186   14.00282363071329   -1.47213348702300
H         6.73400030149357   13.94804199922915   -1.85321250657447
C         4.69111874021136   13.36651190121347   -2.14195852785055
H         4.89182851613281   12.81620893519657   -3.05032781348045
C         3.39840724724754   13.43722400595810   -1.65897957941481
H         2.58871570638312   12.95888363199104   -2.19044279416358
C        -1.01022541156584   11.39603113253561    2.84557299034786
C        -1.46459773015961   12.59446737127412    2.30364775644614
H        -1.08116230233156   12.93272937658089    1.34735949560981
C        -2.40621278057943   13.34890050726212    2.97773835146302
H        -2.74831676999497   14.27892904998924    2.54681464103820
C        -2.91351766780014   12.91592506339595    4.19168484835602
H        -3.65017877046922   13.50773979690041    4.71462662421447
C        -2.47587829117334   11.71414700100584    4.72538682556113
H        -2.87173792011332   11.36475313917178    5.66825131802568
C        -1.53118380523505   10.95757187582045    4.06073141608508
H        -1.18409150742922   10.02094815253037    4.47039232030990

