49
CSD_code = FEKRAP | q = 0 | S = 0 | Stoichiometry = C20H23ClN4Zn | MND = 5
Zn        2.25875959840678    0.18862634106756    9.32399829790067
Cl        2.27340093372738    0.90685970868488    7.27040010740673
N         1.56081061661479   -1.65262502059273    9.69031664122338
N         4.00404747586478   -0.29664150323182   10.17790734183492
N         2.74476192760537    2.05914330508983   10.38111169316059
N         0.16886350192951    0.62982041696237    9.86219786279210
C        -0.50333491852798   -0.54879006064334    9.39494172576876
C        -1.82665517839362   -0.51516348379953    8.99719529841692
C        -2.45496079913574   -1.66882056499780    8.55700125388877
C        -1.74593061920522   -2.85727797117253    8.51290917008030
C        -0.41921881360443   -2.90041868126233    8.89462433136758
C         0.22850388795677   -1.74784147543335    9.34718725592520
C         2.27483285235476   -2.68928275975782   10.06421446126959
C         3.61707977019088   -2.65708020574086   10.43048485763275
C         4.40202640369085   -1.50903170145951   10.48700164727089
C         4.82779879050215    0.80571015655558   10.26846496933542
C         6.22440918311384    0.78895037573758   10.22452784062235
C         6.94293831582532    1.96807557016299   10.25761665291843
C         6.29322746002850    3.18918328501715   10.31996876587038
C         4.90873712068479    3.22457430465672   10.35669185973591
C         4.17918501700275    2.05069911150740   10.33741946423955
C         2.23524480580612    2.02965031236935   11.75615603410657
C         0.71042245736024    2.08081602430173   11.79930802861170
C         0.02950210906814    0.80480411935346   11.31178183698069
C         4.24382973834636   -3.95053813839759   10.89844958294206
C         4.08503712762696   -4.13259237771544   12.40914278190903
H         2.41931987351630    2.91548484927891    9.93410319196982
H        -0.24633266072428    1.43659931850986    9.39772248414318
H        -2.36755364875433    0.42148512601083    9.01999481814661
H        -3.48666991488036   -1.63657851667186    8.24267745217455
H        -2.22723119778934   -3.75764252836974    8.16081711826297
H         0.12885997041478   -3.82578002304564    8.80520008285930
H         1.77822002232938   -3.65780375757865   10.15162046386456
H         5.41473977410323   -1.64089594559643   10.87341751207520
H         6.74840616262774   -0.14932007238312   10.12576236590066
H         8.02159591101056    1.93452360980121   10.21730424328441
H         6.85827455620072    4.10836351092077   10.33045543804585
H         4.39162230513665    4.17429848393706   10.38869025464900
H         2.58792884102779    1.10654715382111   12.22288532207446
H         2.63842499314546    2.87741653186391   12.33112030503081
H         0.40601808100549    2.25382859974150   12.83332058609959
H         0.35973445306570    2.92843191338576   11.20380371340483
H        -1.03461115906296    0.83725529582834   11.59185803335294
H         0.48048650640926   -0.06408854176876   11.79752631344859
H         3.77713040683270   -4.79371506845081   10.38584138630593
H         5.30618125623951   -3.95840293651623   10.64714676598365
H         4.53865181496142   -5.06695314642281   12.73259389175606
H         4.56266546382705   -3.31310742227564   12.94186630991397
H         3.03151942451549   -4.14685552127892   12.68005218404300

