29
CSD_code = FEKTAQ | q = 0 | S = 0 | Stoichiometry = C12H12N2S2Zn | MND = 4
Zn        6.45073522973199    2.11552035531518   14.62433300105791
S         8.77026470054063    2.32097071262475   14.67224640745022
S         4.14223414646689    2.29204539689653   14.36650184774729
N         6.82522662702259    0.10989437811690   13.85148989937144
N         6.00536218081843    1.68057163173013   16.71382985117543
C         8.07523132785289   -0.14872418978918   13.48617406390561
C         8.44938669906465   -1.41773763125139   13.04363049888013
H         9.47245391154938   -1.60224866932512   12.75393680412411
C         7.49886166277523   -2.41718662801157   12.98071186488325
H         7.76747224084989   -3.40782782880242   12.64508058967165
C         6.19219612965560   -2.12545191705052   13.35271330084175
H         5.41877960440701   -2.87526219293220   13.31250320985819
C         5.90402663808796   -0.84495440136805   13.77944677365445
H         4.90581876265035   -0.55011747208922   14.07195687854117
C         9.08080618327222    0.95703991909869   13.50615876627694
H         9.13108296871199    1.39617894622280   12.50490751582177
H        10.06697410762787    0.56197714336526   13.75418403351918
C         4.75338658191120    1.89810316518775   17.09888472646961
C         4.33252384447563    1.58771514190577   18.39216238876669
H         3.30895396025244    1.77265974827260   18.67986675917728
C         5.23818323082710    1.05032608893001   19.28525462117675
H         4.93247107843091    0.79832916334038   20.28983135434008
C         6.54796559604473    0.84278620184782   18.87026803059718
H         7.28749763547825    0.43112843082199   19.53785217860626
C         6.88396320320287    1.17676970015249   17.57392821990854
H         7.88762400381705    1.05070682361728   17.19217749858207
C         3.79849368620789    2.53131557655681   16.13872174827898
H         3.78995367350258    3.61034316915275   16.32111121289349
H         2.79037038476347    2.15032923746530   16.30763595442203

