49
CSD_code = FEKTUK | q = 0 | S = 0 | Stoichiometry = C16H20N4NiO8 | MND = 6
Ni        6.95963442532956    3.81194355902196    4.55815463754897
O         6.74902645645108    2.51073577165819    3.24994286399772
O         6.14317924263929    0.42329105212133    2.83267803228656
C         6.14622995992814    1.41913285056586    3.51526514222488
C         5.37105465341238    1.45744273070939    4.86846488527011
N         6.04530569997895    2.39860133701242    5.79588546994409
C         7.04471517904282    1.69009445665868    6.61294792205416
C         8.29199020769244    1.37600734025423    5.79120591399160
C         5.04047496130190    2.99945576547514    6.62431588914506
C         4.54846479792658    4.19652767297209    6.35649028049609
N         8.87699002890415    2.62038839174574    5.27443365831341
C         9.79571837578484    2.44802119324893    4.23352289508568
C        11.29889380774991    1.55006488450932    4.73622968106556
O        11.18912682507267    1.22010194731045    5.88193385769979
O        12.01923725136370    1.53162776999510    3.79446435313169
H         5.28369713661418    0.45469171307461    5.29820292913539
H         4.36752489406780    1.82362253865906    4.63902424089482
H         7.31565942090797    2.33346358611466    7.45621699907733
H         6.62772301514403    0.75571490856698    7.01100138712690
H         8.04181109426157    0.73255501509064    4.94516127961815
H         9.03001927591635    0.85689399330021    6.41566894600300
H         4.66581325352285    2.40215235644708    7.44827893384649
H         3.75491711907885    4.64628189256253    6.94294078574534
H         9.41422186769183    1.82812771036095    3.42753456517541
H        10.21427553300692    3.38322424592420    3.87404829151963
O         7.17132088933302    5.11274465427205    3.25000252523455
N         7.87456648580347    5.22543365021589    5.79616679793659
N         5.04311204157803    5.00366718077470    5.27437462416054
C         9.37149815860441    3.42756727890893    6.35657377384612
C         7.77420777468571    6.20434415375925    3.51514828476853
C         8.54894914444670    6.16637064002947    4.86863466265270
C         6.87514851880606    5.93409609976944    6.61308796300652
C         8.87931065723015    4.62453524888494    6.62459092478633
C         5.62795364718140    6.24810529795555    5.79120208036923
C         4.12375007445667    5.17644600839162    4.23379238665262
H        10.16504406406811    2.97786385564798    6.94306210989977
O         7.77787903935075    7.19987797465133    2.83210607516536
H         8.63615742335115    7.16923943256227    5.29809908874789
H         9.55259594649761    5.80024774458232    4.63955285039038
H         6.60412084019076    5.29087985341066    7.45644993195914
H         7.29213939756798    6.86853096318595    7.01101990509343
H         9.25385803166550    5.22166598349451    7.44873469073963
H         5.87823829005586    6.89151873880490    4.94515566881315
H         4.88978077119143    6.76719977975512    6.41551809069696
C         2.62186581248490    6.07374957640227    4.73650134231429
H         4.50532998069178    5.79616987426790    3.42768099277350
H         3.70540066948379    4.24118493498288    3.87413246810965
O         2.73137576700367    6.40370155301588    5.88238545472884
O         1.90069209148304    6.09269483891483    3.79521346675610

