36
CSD_code = FEKZUQ | q = 0 | S = 0 | Stoichiometry = C17H17BrZr | MND = 12
Zr        5.24577318218161    2.07394445477251   10.08635445977834
Br        3.81506973848697    0.24418245314012   11.19175604562528
C         4.70227830177353    4.16983834972761    8.79278265782565
C         4.24686661391085    3.09579875425358    7.99718726627639
C         3.19447952611994    2.45607130368067    8.68314737607305
C         2.96818751376108    3.16136248455633    9.88663134222121
C         3.89463089152459    4.22050949683292    9.95357509635738
C         7.04521291917145    1.97625360297593    8.32363187625243
C         7.64504954451360    1.88458724748886    9.59971460612306
C         7.26989784664182    0.63804965420091   10.16550824705295
C         6.43439817494614   -0.02146761841567    9.24120657989913
C         6.28422415586055    0.80626926182656    8.11143081804932
C         5.70916916878928    3.10227653176762   12.01812128528562
C         6.75366213699934    2.34682842477532   12.73186289989468
C         8.09127535397281    2.76705070918065   12.71642943559602
C         9.08047024029192    2.03411942967940   13.34295983559099
C         8.76418598547234    0.86572696082674   14.01685053740785
C         7.44182294536803    0.45255320514327   14.07728766767116
C         6.44864189707457    1.18103984860587   13.45185741738630
H         5.42360552541745    4.92169249095489    8.49395432332064
H         4.55536890884917    2.88780228456701    6.98018138558634
H         2.58338641008373    1.64371993321300    8.30305520927033
H         2.16550096017273    2.97267039939771   10.58995127293196
H         3.88933150283781    5.01791977452585   10.68665265457843
H         7.24556884248200    2.74704000584175    7.58924013235759
H         8.40452702301268    2.55122836996378    9.98910647983249
H         7.66209490853214    0.20864941959290   11.07955992573208
H         6.05218191492552   -1.03009778111449    9.34424806005877
H         5.78779885848100    0.52424717156834    7.18971203270056
H         8.34862656654966    3.69522007420308   12.21785184297051
H        10.10395461466509    2.38012975760538   13.31365829254573
H         9.53801275065470    0.29245392076119   14.50449504104012
H         7.18214908242477   -0.44337307898686   14.62189904138538
H         5.41913513741780    0.85498981774122   13.53144140073738
H         6.03506767659886    4.14631881556371   11.87004620540764
H         4.76639318003803    3.08769406959161   12.59575124918019

