57
CSD_code = FELFOR | q = 0 | S = 0 | Stoichiometry = C28H25FeO2P | MND = 8
Fe       -1.18729327801869   -2.76560061457725   -2.56852574790513
P        -2.20874445932246   -2.50410060499506   -4.46339284408540
C        -1.20393478878547   -0.89934454629819   -2.24819554807649
C        -1.43334268566254   -0.43868768022048   -0.88038923043987
C        -2.05530946492981    0.69882058011407   -0.55893680251853
C        -2.52621773290439    1.74044295674536   -1.50981313915747
C        -2.64288068522826   -2.93648199432904   -1.64810737658720
C         0.89027384305107   -3.08692059859922   -3.29808991921323
C         0.98278565358081   -2.62000724894459   -1.98080886303468
C         0.29269438943606   -3.53650365295567   -1.14944543689090
C        -0.11563213992232   -4.63856341654169   -1.95113278602164
C         0.22485875604078   -4.35285118142172   -3.27604037952679
C        -3.25621468959864   -1.04125901403041   -4.78502138988425
C        -3.27714610953841   -0.34554264993535   -5.98812567091377
C        -4.13601720054036    0.72770359791975   -6.15270682372483
C        -4.98224805666058    1.10995291844120   -5.12625346677625
C        -4.96919155024129    0.41600215486867   -3.92681013652833
C        -4.10929650358349   -0.65214159045755   -3.75682568097590
C        -3.40629850508047   -3.82022073553959   -4.89314677052139
C        -4.27145201884232   -3.70874111625466   -5.97749852924478
C        -5.15027090484944   -4.73550861929529   -6.26917159525101
C        -5.17234893506208   -5.87791152807007   -5.48434281036503
C        -4.31370181048844   -5.99323940603694   -4.40367184748311
C        -3.43425381885521   -4.96686448321070   -4.10870488113958
C        -1.10377058432110   -2.52608034829497   -5.91425096226163
C        -0.99907777876562   -3.62900453919306   -6.75427423165025
C        -0.07325543469772   -3.63032051987871   -7.78369393738120
C         0.75826557738865   -2.54003331421740   -7.97538796623008
C         0.67065077694550   -1.44567889046159   -7.12802519375405
C        -0.24896527423628   -1.43971110830280   -6.09668201764167
O        -0.93832237231513   -0.19623548408512   -3.20019388157992
O        -3.58272512549339   -3.08160647979769   -0.99427581326247
H        -1.16011788334136   -1.13918478088097   -0.10372010482982
H        -2.26577216058595    0.89944204065522    0.48584994152604
H        -3.58712256571706    1.93681633002441   -1.35555669299551
H        -2.35890236774970    1.44112669421278   -2.53978678066235
H        -1.99005846317922    2.67133353363855   -1.32372783070695
H         1.37724991218687   -2.65815433965028   -4.15791082696259
H         1.50057283443428   -1.73351242231228   -1.65406499685996
H         0.27146437339230   -3.51327247683611   -0.07103563080211
H        -0.56228777745920   -5.54744165186212   -1.58449740726083
H         0.11660892889647   -5.01132275260629   -4.12344568506242
H        -2.61927786579239   -0.63430396420309   -6.79565816759916
H        -4.14324317753454    1.26789034876962   -7.08851417437800
H        -5.64909260235342    1.94913943561432   -5.25920307748125
H        -5.62810781236988    0.71108818710707   -3.12342564476067
H        -4.07805319180901   -1.18970044040361   -2.81892953350024
H        -4.25328333514762   -2.81683049420804   -6.58872327293238
H        -5.82177216255056   -4.64580469538049   -7.11079375054175
H        -5.86164957008600   -6.67688484649849   -5.71491882648486
H        -4.33259871703965   -6.88219314878588   -3.79027429082669
H        -2.76091771610618   -5.03470002799408   -3.26371274342118
H        -1.64247690159555   -4.48542764262910   -6.60532198019324
H         0.00098455303587   -4.48831630859058   -8.43643333940541
H         1.47956053437326   -2.54567860269627   -8.77954194744581
H         1.32701065409114   -0.59913992756887   -7.26966253225110
H        -0.31343460849077   -0.60392888906097   -5.41474902413570

