68
CSD_code = FELGIP | q = 0 | S = 0 | Stoichiometry = C36H27N2PPtS | MND = 4
Pt        3.47040291937813    3.76283010298435   12.33802061358978
S         5.43364374076490    3.80035011992903   13.90907812759827
P         2.20714305383151    4.63063638792674   13.99568410999070
N         4.56841205571265    3.05046166716058   10.80332981602035
N         4.70886428222589    5.98873652466934   12.67452625991373
C         1.93256325340537    3.31869073747425   11.06809349961458
C         3.84244056027791    2.71727680778089    9.71020004665984
C         2.43187605855581    2.83693691284183    9.83446058143754
C         1.60184184380646    2.45679687850501    8.75970368237811
C         2.21754687967554    1.99712429383905    7.55886365300605
H         1.57643471475607    1.71464275451948    6.73556046509273
C         5.54758533174922    5.47830822289674   13.59282419592487
C         1.30757379785755    3.40697090125275   14.99463016948124
C         3.01757851125508    7.03869650076864   15.19723503199243
H         2.48101388618930    7.53864476253120   14.40298813278388
C         3.00171219193667    5.65116046679102   15.27756273294425
C         1.21622487853379    6.39215391270939   12.14794556859318
H         2.12603302692727    6.11421244083742   11.62653255507618
C         4.42956200006908    2.25555493750372    8.51482541856532
C        -0.83538450068601    7.61999563530249   12.29001807387707
H        -1.52976015312697    8.33432063146502   11.87263146780064
C         1.20537288010150    2.11876047108650   14.48071749260012
H         1.68016335892856    1.89977218313392   13.52933652232118
C         0.33326817855434    7.31015120592343   11.61223199731613
H         0.54946154689850    7.78084988226630   10.66429977618583
C         0.94091409409792    5.78341242476535   13.36879079893634
C        -0.28569195570834    2.97320055717773   10.14834349841817
H        -1.35600354009408    3.02418442259747   10.29385463625481
C        -0.23328609884370    6.09203959744049   14.04295425661597
H        -0.46482070258093    5.60996845975518   14.98146307391358
C         0.21521177820214    2.54494815763293    8.94114964795724
H        -0.44829606959786    2.26601139317868    8.13508332697057
C         3.70748332556970    5.01223585639798   16.29479726127419
H         3.70730932014336    3.93174058016825   16.34490097025165
C         3.56550885404638    1.90560980294048    7.43684009480761
H         4.01601136257357    1.55486253954410    6.51945184585595
C         5.88499043401975    2.95507048994127   10.73871893945799
H         6.44558624871318    3.21752956017500   11.62769999783306
C         6.47903022767946    6.28364682889365   14.26741511086885
H         7.12661233656700    5.82816799134126   15.00014217530356
C         0.74888415831102    3.70145837530107   16.23496501169203
H         0.86536454602956    4.68898472957428   16.66129673555171
C         4.77811413890968    7.28518091796854   12.40684810560089
H         4.08329381419669    7.64535771385883   11.65773307492973
C         0.55518464071405    3.35218647926810   11.19936152679704
H         0.09719774970377    3.67590251602069   12.12595452864053
C         4.43221985924771    7.13847240720570   17.13281632534853
H         4.99599453931896    7.71805183728408   17.84908658993024
C         4.41696845177726    5.75537967265863   17.21860082889866
H         4.96903113804572    5.25453631354099   18.00025550426519
C         5.82801946107261    2.16476031066879    8.47407315101072
H         6.32106493310305    1.81681482209225    7.57793430284086
C        -0.04828402422035    1.44346675748382   16.40790385952977
H        -0.57844121700889    0.68146303853387   16.96012933138951
C         6.54922548661854    2.52056314700085    9.59155566865459
H         7.62640933898120    2.46288449382411    9.59933928824865
C         0.06963426357962    2.72027129130330   16.93412983605683
H        -0.36423031274385    2.95000006274376   17.89667262128117
C         0.52645422992620    1.14075181136100   15.18419208463923
H         0.44999856466011    0.14101688263640   14.78288130210080
C         3.72882776232025    7.77745097335757   16.12593481897040
H         3.74137221780624    8.85544970934682   16.05583925571867
C        -1.11828113403075    7.00740894724583   13.49963360277068
H        -2.03395514968384    7.24275149190113   14.02257739412646
C         6.52923710358631    7.62456036622384   13.98222431005330
H         7.23189327101045    8.26858090501348   14.49215863157450
C         5.66069140257063    8.14693947539424   13.02358001596459
H         5.67497685382676    9.19479054712962   12.76861666793739

