69
CSD_code = FELGEL | q = 0 | S = 0 | Stoichiometry = C37H28NPPtS | MND = 4
Pt        9.17929985439775    8.48802859935944   12.38824472685614
S         7.23523105183375    9.89100581668607   12.92113688271437
P         7.88926679194954    7.41457234065126   10.87535246177037
N        10.35199708529862    9.41605223345763   13.76482391504741
C        11.58551351797062    8.87412498687670   13.88921713645318
C        11.86391548327346    7.73666158758590   13.07994460508995
C        13.81497669088863    8.73020204502049   14.84979163311469
H        14.55550702773731    9.12779601374404   15.52874197892448
C        10.04519762268698   10.47321857884033   14.49557048347655
H         9.04821109779295   10.88096684109628   14.37671410950361
C        10.84223571363485    7.29116478313881   12.20698857784060
C         7.23667522837746    5.87655741161952   11.59165642300569
C        12.33737275169716    5.47489539710832   11.60488839430514
H        12.50006207870239    4.57747205890908   11.02396381142401
C         6.38282490523219    8.17173670843515   10.18730711417790
C        13.11421121654861    7.09397619635585   13.19549899759367
C         7.81372096860092    5.43418246579003   12.77756687626454
H         8.60684832507604    6.02750731922738   13.22618876298952
C        14.07773021170469    7.63353685045923   14.09656660148491
H        15.03651941147577    7.13943376055164   14.16946521840643
C         5.23968014387864    8.21918638445875   10.98177733827410
H         5.25980963676714    7.78262688558279   11.97107434340063
C        10.94348473207017   11.04679106141878   15.39580264114198
H        10.63544910303095   11.90789225605301   15.96750339824737
C        13.33676198066452    5.94681607103179   12.42162140257379
H        14.28736230767080    5.43681593546297   12.48500485897687
C         5.74909781869023    3.99105491545297   11.62863319622275
H         4.93556898279834    3.43293090283758   11.18809796302118
C         6.37258157503187    8.76111628377699    8.92882916907251
H         7.26332726079459    8.74504945588094    8.31683117809428
C        11.10627424773304    6.13123635836822   11.50136105950518
H        10.35700830755722    5.70178290981389   10.84864438041559
C         6.13628621753150   11.53673356550601   11.05857336618186
H         5.25727854865227   11.51303894270715   11.68577132255765
C         7.26656116606119   10.82054682354264   11.45301892988351
C        12.55226557095869    9.38615180302771   14.77867861493941
C         8.39405308989803    5.82974896827690    8.56737813731980
H         7.59547736685426    5.17628742306633    8.88573453474202
C         9.79922929560537    7.74426666927423    8.93056708117543
H        10.08578167310460    8.57960510165720    9.55894044144230
C        10.47725168520860    7.47653619440993    7.75684565677569
H        11.29071446546391    8.11443449412746    7.44405019097679
C         5.22374211196722    9.37557318699800    8.46361999888534
H         5.22106818245779    9.83329946822657    7.48543189174472
C        12.20063782675622   10.50731013624184   15.54403139015010
H        12.91284469471145   10.93041734878590   16.23761686397471
C         8.41075472136791   10.87295603452867   10.65492628082123
H         9.32507449212747   10.37717499369770   11.00115927778477
C         6.18659684998210    5.15731774813933   11.02746130695315
H         5.69717821608816    5.52241072093508   10.13445599868601
C         7.37047918103305    4.26954910984020   13.37701998480287
H         7.82046046406841    3.93108311960500   14.29860984510675
C         4.09673928965217    8.83665167041601   10.51196423990219
H         3.21367238483147    8.87527406040527   11.13299834950835
C         4.08663689578149    9.41364849129056    9.25203254444489
H         3.19344270072093    9.90010587700740    8.88841158433685
C         9.07932518148083    5.56044268727429    7.39512403186051
H         8.80344737433784    4.70273032792020    6.79893816892175
C         6.34392487882119    3.54213918667230   12.79725160242301
H         5.99610568049106    2.63152855572038   13.26248765321419
C         8.74966561213644    6.92732202981728    9.34043011386938
C         7.26991607055414   12.26550659138207    9.07056265201689
H         7.26644531902696   12.81864934644894    8.14274314088671
C        10.11507822171862    6.38358382820677    6.98552076008436
H        10.64408236131170    6.16927744766562    6.06861584039729
C         6.14293619946124   12.25027038344583    9.87937148209179
H         5.25885856257397   12.79654743363948    9.58160420561766
C         8.40466660454737   11.57877507364317    9.46826096885474
H         9.29439771110226   11.59991374140747    8.85358190729721

