63
CSD_code = FELHAI | q = 0 | S = 0 | Stoichiometry = C17H40BNOP2Ru | MND = 6
Ru        7.41917850940258    3.90824479798904   13.02889904055253
P         9.67003171752725    3.72444864069281   13.40465503235140
P         5.14783906721628    4.05268627380476   13.27392321482730
N         7.45785272924807    5.12699753180797   14.75405946253872
O         7.39304915397292    2.54148685561621   10.36027854227921
C        10.38272527572500    2.06855030512937   13.89853959463871
H        11.47599751305542    2.16375040261857   13.92541396753281
C         6.24189284091978    5.13583398014279   15.57062562290403
H         6.25582055542337    6.01075071507857   16.24414198499797
H         6.24074252760687    4.23400012862350   16.20019749241500
C        11.02292938497944    4.27623719215646   12.23122851524220
H        11.22991575613727    3.38593495049769   11.62155649802917
C         4.95581880706203    5.16535257378779   14.74359284368171
H         4.78793323650398    6.17392366357253   14.36183691007993
H         4.09724348388220    4.88278267423448   15.35794819079756
C         4.17549730691764    2.51986198052430   13.71963987486441
H         3.10791992256495    2.77318264018732   13.68478798215629
C         9.88312946318525    1.60418010820969   15.26080114001802
H        10.25638263080923    2.23391629546350   16.06613658476010
H        10.21289328824907    0.58370046346614   15.45019681629280
H         8.79446008631009    1.61817909445328   15.27533724894634
C         4.52440712149992    1.99364431216731   15.10610851878519
H         5.60095427788747    1.84901891036537   15.18206481723366
H         4.03934712964342    1.03295887009792   15.27262688228308
H         4.20212395106739    2.67459465200130   15.89152584089377
C         3.95921271513267    4.78815197756745   12.02568987015202
H         3.65752159942932    3.93316793914693   11.40521351668323
C         4.48493391454896    1.46354916796154   12.66266263921429
H         4.22261465731166    1.81056031961505   11.66443655226226
H         3.93552368525738    0.54504900617132   12.86256003138257
H         5.55368444864216    1.24663964375820   12.67174420375002
C        10.49827504711731    5.36872627964189   11.30616791024997
H         9.60380167899101    5.02287552056912   10.78758451429631
H        11.25081533416240    5.63392893915915   10.56470500930268
H        10.23998035001425    6.26377550131254   11.86925361287558
C         2.70746423811319    5.41513726559430   12.63511083174238
H         2.24657606133372    4.76352560124675   13.37488404694202
H         1.97618114062117    5.60377225354164   11.85034093433096
H         2.93758231247887    6.36639798974101   13.10897494318857
C         7.40380929766553    3.06377933485768   11.39600863259021
C         8.61332010660017    4.96359210000055   15.63931474219176
H         8.44792932001643    4.07372392922693   16.26417127795472
H         8.68715031697110    5.83418545666569   16.31451407740716
C         4.69026462606735    5.78367551352870   11.13187182231331
H         5.04588946043463    6.63549796456728   11.70870323243338
H         4.02797067376933    6.15055600691996   10.34880540378406
H         5.55151625631903    5.30534998177862   10.66492247910364
C         9.93564772883697    4.80348563720112   14.88787137677396
H        10.70755953264926    4.40240115658436   15.54945486123528
H        10.26921909455465    5.77560355053183   14.52059657025655
C         9.98367728962986    1.06416905744382   12.82120156542251
H         8.89595538099916    1.00485598494462   12.76867282090051
H        10.38164238020793    0.07639537649324   13.04786983721203
H        10.34988761353311    1.36560370761259   11.84099162634224
C        12.31696926267641    4.71201639529148   12.91459069311151
H        12.20258553455034    5.68612300069128   13.38427574658005
H        13.11047520342590    4.79248170098667   12.17286803161142
H        12.63591962461162    3.99890547356528   13.67228456189950
B         7.56830597741763    6.22149413815746   13.68104479228439
H         6.63393103922738    6.95343358398947   13.62524305482427
H         7.30172611100755    2.62916734640067   13.87027476202965
H         8.60002358831464    6.81086018002707   13.68234600547961
H         7.54847166055849    5.46346800479750   12.48215079077095

