61
CSD_code = FELLUF | q = 0 | S = 0 | Stoichiometry = C24H28Cl2N4O2Pd | MND = 4
Pd        1.97917739040344   -2.89159413526806    8.41392027416155
Cl        1.80643188841517   -2.42893441515503    6.17240739191183
Cl        2.26165088699352   -3.35739431857459   10.65415908397063
N         3.15546227658375   -4.43186703108122    7.99851659982211
N         0.73625482138214   -1.39121601689572    8.80094992563923
N        -0.55703218951165   -1.44722038661046    8.47206518171334
N         4.44854874344538   -4.43254786751983    7.67206050452443
O         5.27965928314367   -2.88283250642206    9.88891942345859
H         4.41876696233437   -3.16818448297307   10.25735521110782
O        -2.33921580903180   -3.04184196498779   10.15759083780019
C         2.76424339718260   -5.69269754995632    8.13936408466831
C         3.85301540067528   -6.53451054350929    7.91039100618515
H         3.86504403566348   -7.60442471370359    7.93751925192438
C         4.91616143826323   -5.69879265564944    7.60708947131370
C         6.28261059558562   -6.06804031082095    7.24746300035527
C         6.98980817184343   -6.94721027765179    8.06346889016899
H         6.52794666550502   -7.31545953839829    8.96700238357974
C         8.27553854872109   -7.32772887373433    7.72775468494209
H         8.81990916467624   -8.00373016989198    8.37012927946317
C         8.86584210980886   -6.84294396159218    6.57220132286422
H         9.87040475839689   -7.14055356428757    6.31141993700459
C         8.16239736906789   -5.98088795304598    5.74775640258446
H         8.61454195918043   -5.61085553532550    4.83949044604736
C         6.87695427310116   -5.59372553873097    6.07995424945195
H         6.32150085540917   -4.94399607422965    5.41908667410391
C         5.18902659666708   -3.21432664981584    7.46111285030264
H         4.81630142805933   -2.71034032347351    6.56049030672285
H         6.23493331974025   -3.49485654613290    7.32793271199118
C         5.06778928017327   -2.24372806416626    8.66272933193635
H         5.84513536074981   -1.47977138792935    8.54901620616084
H         4.07322702238526   -1.74304934588423    8.62341161610470
C         1.35248679077788   -6.02048808018434    8.47951958004712
H         0.68100190435847   -5.35066907539142    7.92627461966949
H         1.18668100282371   -5.88285603745787    9.55017042349681
H         1.12969975941965   -7.05237135613219    8.22088793641701
C         0.97388662739535   -0.19548169373494    9.32493778855264
C        -0.22079909655106    0.53009063694676    9.36015768071784
H        -0.36148069544772    1.52937599268568    9.71714771818034
C        -1.18315776325589   -0.29879585295087    8.81090069061401
C        -2.60326615155133   -0.04154883463841    8.58298049980025
C        -3.16157837417724   -0.17735149778850    7.31357393341260
H        -2.53473397374291   -0.45527863783816    6.47784829802267
C        -4.50607722063484    0.07957825257690    7.11523845123260
H        -4.93092375817645   -0.02370440256326    6.12771235174905
C        -5.30361877087833    0.47493950178808    8.17658807938497
H        -6.35315222705138    0.67303415358554    8.01868607048620
C        -4.75038863756186    0.62442014981246    9.43783262311276
H        -5.36859213318472    0.93930794794946   10.26517177566487
C        -3.40648134858888    0.37125380700185    9.64221558378362
H        -2.97102389712313    0.47584759783009   10.62409947127091
C        -1.14756938217206   -2.69169060298612    8.05318481018288
H        -0.45717215940051   -3.18294713786630    7.34859272884707
H        -2.09372892946745   -2.47851883666246    7.55025214867782
C        -1.39362099098707   -3.59288747877923    9.27891447582242
H        -1.70367754515602   -4.59036382066426    8.93646037472953
H        -0.46616634937635   -3.68433296883982    9.86187898705876
C         2.33518325499333    0.21644165108303    9.75910096033212
H         2.77054438419782   -0.55374763898950   10.39940308340680
H         2.28494188136120    1.15032004373018   10.31200580131072
H         2.97748291481365    0.35989417756439    8.88658633831368
H        -3.19463512066066   -2.97770725559366    9.71754817367228

