85
CSD_code = FELQIX | q = 0 | S = 0 | Stoichiometry = C41H34N3O5PPd | MND = 4
Pd        4.69902324850805    5.62565630180046    9.44760939262639
P         5.92499300604546    4.30502737778597   10.82058185319438
N         6.39246863953098    6.92821374960477    9.39875198160958
O         5.24800607128813    7.26947915201949   11.32904364938255
C         3.13902458369243    4.39002917283569    9.19208810429309
N         2.70621134187484    6.06193053983342    7.53585091003709
O         7.96746380395773    6.99963269084200    7.72727641937101
O         7.70868931526838   -0.60418166715250    7.95054625958404
C         6.01788921078720    2.47793335594417    8.75744145381267
H         5.30539903032563    3.15912450280536    8.29176138990394
C         7.47909683082918    1.95166516384611   10.58459260900392
H         7.92694835169571    2.20827628159425   11.53465358473463
C         6.51757904924397    2.78282363103558   10.02346734483658
C         5.32832367103030    2.75792813394780   13.14410761406933
H         6.18485618577493    2.14017381974606   12.92244212425494
C         7.46580474049816    4.97961986760241   11.50328492333881
C         1.65921630215370    2.47336383539063    9.26295245279673
H         1.39021728922945    1.52908716351722    9.71535678167913
C         6.22304209373281    7.49712822700333   10.60741116652098
C         3.86930043604139    4.58584855884091   12.60284876138092
H         3.60176936551371    5.40894795031895   11.93953742117620
C         7.90156153495016    0.81102397217853    9.92649786628729
H         8.64956612251531    0.18658558993102   10.38969965232561
C         8.20977852083296    8.29942446893215    9.77315363465486
C         4.99156002627948    3.81782847248976   12.30616344848992
C         2.76226851869548    3.16682869980108    9.73883190975526
H         3.33632185527398    2.73602418811895   10.55215085212706
C         3.09909444442220    4.31914383215392   13.71938281055662
H         2.23754441545791    4.93492079900186   13.92312068858752
C         3.44104805521245    3.26176649530284   14.55880023629163
C         2.35585422054036    4.86589084560617    8.10597199777749
C         7.55508769208505    7.34605009160976    8.81310489085181
C         9.71954365233956    5.71093357584676   11.08834987978513
H        10.58504945283122    5.79005304166971   10.44990482082686
C         4.56136366509251    2.48291426501104   14.25464419189730
H         4.80605078666335    1.66363440658944   14.91258093889770
C         7.37229871905083    0.48988376886017    8.67872224081007
C         9.76678500859115    6.31244682131108   12.34975439375230
C         7.37254646888525    8.39784838189079   10.88496696459695
C         8.65847216188620    6.22611920876720   13.18604847244239
H         8.66489433811436    6.67771041734086   14.16559501646902
C         8.58350088664513    5.05951797694585   10.66994014163439
H         8.54478381711166    4.62015013452609    9.68168773389166
C         6.43354740581750    1.34580591610555    8.09487879533716
H         6.05595892662577    1.09785993124184    7.11557808326725
C         7.69772190107446    9.19596007910229   11.95920875408611
H         7.04350571671453    9.26881235662623   12.81499507511396
O        10.92570212962389    6.95161821347329   12.65511631551519
O         2.76191127174441    2.90393220009504   15.67907077386533
N         3.69314422693297    6.60929544710203    8.10438239399655
C         1.24600900942580    4.16548884995333    7.62249076297327
H         0.68744636177336    4.57603567321312    6.79536581324979
C         4.16797453180730    7.82016665070386    7.60181455167100
C         0.89944084293615    2.96907278371465    8.20932541264635
H         0.04571405115286    2.41344368847438    7.85036312470409
C         4.44094137781548    7.98270499035263    6.24484371371040
H         4.25293782738533    7.16179173426660    5.56885069119056
C         7.51652286010191    5.57232568315330   12.75737339467065
H         6.64892564477544    5.53463687119297   13.40112742935559
C         4.39970481018857    8.86823802784613    8.49624201209237
H         4.13623460206762    8.74088148178740    9.54050406066464
C         8.89767323758342    9.89794457731817   11.89858779772573
H         9.18185112127377   10.53922546417917   12.72159200686842
C         1.62139817149841    3.64491682228768   16.04381951034908
H         1.25157215101149    3.18382325166063   16.95821630652950
H         0.84589535458619    3.59350479503313   15.27328001762761
H         1.86963506424084    4.69234402481351   16.24168252049811
C         9.39960067902281    8.98914842132015    9.71392990837552
H        10.04740755470492    8.90421456602839    8.85514516308977
C         4.99104357593597    9.16940996798935    5.79964947999864
H         5.22739565279641    9.28914332871476    4.75300756808744
C        11.01725844632195    7.63009132630597   13.88453723528369
H        12.00219519534416    8.09407480857511   13.89146539941373
H        10.93675523694524    6.94084942211164   14.73148735499627
H        10.24958674997154    8.40520241018223   13.96910894625121
C         9.73518031895115    9.79225938761701   10.79983495554703
H        10.66434240187581   10.34327235875393   10.78692723813172
C         8.66853168106864   -1.49521287234953    8.46675179808564
H         8.77199479482177   -2.28062668096313    7.71992961714703
H         8.33932346619553   -1.93728196223163    9.41258262144827
H         9.63614473389574   -1.00412481897377    8.61056461256501
C         5.24592447814244   10.19979626734055    6.68977713706032
H         5.68577785905982   11.12079540954721    6.33741573490430
C         4.93700473854695   10.05219973056015    8.03410956504992
H         5.12316690776019   10.86165215275662    8.72488736656739

