72
CSD_code = FELQET | q = 0 | S = 0 | Stoichiometry = C39H27N2O2PPd | MND = 4
Pd        2.94596718865999    9.43144670464817    3.55956553911965
P         2.96935391403220    7.89752807332258    5.17411598731678
N         0.80440322796291    9.30961787685603    3.56192699614095
C         4.93952153458210    9.70965749536684    3.49515691401015
N         2.95473589071486   10.87235421667244    2.10361119356555
C         1.93225017501360   11.38389325712389    1.44742053581269
H         0.96583907733994   10.91346271302565    1.58934716889029
C         4.04464116509450    6.18956150769757    3.32529812035116
H         4.07108132509967    7.09797042579725    2.71884860369986
C         4.17744978644217   11.41964257975160    1.94053891939561
C         6.01080667194616    9.08443063274501    4.10861277814520
H         5.85448841653778    8.21547997020360    4.73941514570614
O         1.33937714606468   10.89491662780584    5.09982901210160
C         3.53753035933909    6.26411681532676    4.61974560975956
C         3.99410175302673    8.42084123949928    6.58813597512512
O        -0.30542448191824    7.71209534469423    2.33887401315730
C         7.32175275110862    9.54291612178852    3.93605055489378
H         8.12660685669644    9.02526603382009    4.43957876604898
C         1.37366020945594    7.52122181610459    5.96356497547249
C         4.11841306241994    9.80095067053827    6.74367314679661
H         3.62453614431193   10.46035179294248    6.02902861546419
C         5.74236481474235   13.00384926169953    0.95868498977526
H         5.91559329944392   13.85135259141463    0.31115297548952
C         5.24817402252504   10.80786488032890    2.65618015022867
C         0.50328406845089   10.16751169343357    4.56451404704008
C         3.88370649531699    3.90364996116060    4.88453772357241
H         3.80949521469989    3.00823564451983    5.48446732265083
C         3.43848383368610    5.11087718881678    5.39227756139922
H         2.99027023718384    5.15544020437568    6.37567722454633
C        -0.94518262780438   10.03833533300438    4.88345355447133
C         4.48458519028815    4.97889798072798    2.82160607473351
H         4.87591737403864    4.92060820637915    1.81684172435368
C         4.63077777130472    7.56344945715676    7.47564502100306
H         4.55812520859845    6.49356722658169    7.34781679146264
C         6.76738515883546   12.41211493864752    1.62064097785071
H         7.77635534491413   12.78251755209338    1.50404048433103
C         4.41375840189620    3.83828316520884    3.60542730874901
H         4.75744184361445    2.89201859002124    3.21436371555311
C         0.93767806311442    8.23996219883089    7.07217569936964
H         1.59197106001846    8.96899099305950    7.52997607447954
C         6.56221911464408   11.29137641638798    2.47803558371757
C         7.60238745465529   10.63471368802979    3.15012759066660
H         8.61733941689613   10.98741556997900    3.03532857833714
C         2.06654796511227   12.47824971381734    0.58904258057103
H         1.19642495964276   12.85879650643510    0.07726172636634
C         4.40899049181373   12.51782545556939    1.08472097465358
C         5.38028128014256    8.08547480149405    8.51639704081406
H         5.87998484756841    7.41830935452959    9.20374930894893
C        -0.28645545272521    8.58011249865364    3.18771049122503
C         3.30442499237009   13.05041005707448    0.40491837082353
H         3.43552565163603   13.89478226953975   -0.25669307824494
C        -1.43907951584921    9.05064555301480    4.02991700350314
C         0.51710030874096    6.60591619712861    5.35555901968695
H         0.84361493234293    6.07016430115773    4.47420159015341
C        -2.75719136655589    8.65641146081503    4.08210383965393
H        -3.13355158361407    7.89182438783365    3.41970289747063
C         5.49258335335423    9.45638593252874    8.67716076298587
H         6.07828447921199    9.85621044151368    9.49188729689041
C        -1.75625888705402   10.65325175053304    5.81162457351641
H        -1.36790310744264   11.41458027732756    6.47076559169018
C         4.86086833197899   10.31468007402549    7.79021655918856
H         4.95386193050501   11.38352051361863    7.91276900854364
C        -3.57871049595545    9.27413560970198    5.02010978434131
H        -4.61756950228021    8.98477208206504    5.08951404730308
C        -3.08745848307870   10.25333758204390    5.86869131425737
H        -3.75041338446115   10.71334580030837    6.58743728995851
C        -0.75192049010529    6.40205453528814    5.86378943061361
H        -1.41310907454956    5.69563858732061    5.38451778044448
C        -1.17952227570302    7.11367911009458    6.97343497562291
H        -2.17524164081814    6.96066912822835    7.36243613860633
C        -0.33417927477183    8.03060982127706    7.57511488305651
H        -0.66985192445556    8.59235153946584    8.43442905260446

