49
CSD_code = FELQOE | q = 0 | S = 0 | Stoichiometry = C20H20Br2N4O2Pd | MND = 4
Pd        5.52090793940077    6.17104231404234    3.86488608905834
Br        7.47387910360741    5.16828065188864    2.79565240775722
O        -2.06027008943899    0.87758149500395    2.31713578715455
N         4.55061403970285    4.44725934099004    3.75337647047296
N         2.92148232201498    3.00349382852249    3.49197175594586
C         3.30162745524825    4.29115623281481    3.37048426526179
H         2.66372537587093    5.07112858669954    2.99554773811118
C         5.00213589890163    3.22186037733702    4.14139407135434
H         6.00598507976742    3.06924458384342    4.49488517498753
C         3.99780802342315    2.31553274230202    3.97822081611481
H         3.96218937144118    1.26799678232124    4.19136222971620
C         1.64747580693718    2.48434726127770    3.19965454406841
C         1.51589550931179    1.21004868366054    2.65425933060548
H         2.39396368527866    0.62180602173966    2.43659087134630
C         0.26510237804214    0.70848720737079    2.37493188412571
H         0.14437350711790   -0.27483511957213    1.95018783579129
C        -0.88151745745571    1.46672526238931    2.63008479884798
C        -3.25601839032766    1.58723936633925    2.54523169901873
H        -4.05623952831006    0.92487669669787    2.21981372546041
H        -3.29141321693514    2.51168348887208    1.96078402049996
H        -3.38808073893654    1.81986949666919    3.60632523265325
C        -0.74315057415869    2.74083975530865    3.17486689466409
H        -1.60484066575689    3.35143626660810    3.38983486342894
C         0.51385076603017    3.24235389063105    3.45904275566327
H         0.60883872698064    4.22212408727335    3.90140715581785
Br        3.56670880106122    7.17549592065563    4.93236499644652
O        13.10530496319180   11.45528123465530    5.41984141236186
N         6.49044979595761    7.89525747926869    3.97738132412648
N         8.12102028020297    9.33689567965463    4.24192007502141
C         7.73940730898751    8.04947711359712    4.36116472539150
H         8.37633143143422    7.26821110040951    4.73507747352274
C         6.04033323535200    9.12182058293739    3.59137668454147
H         5.03680819790551    9.27608952934996    3.23770414010955
C         7.04563789618016   10.02679631469151    3.75630610854499
H         7.08248718506985   11.07464564874079    3.54490444921960
C         9.39560506952464    9.85402599607852    4.53534259517616
C         9.52872721731696   11.12749392253349    5.08231476031173
H         8.65137883897678   11.71659458135973    5.30055517313258
C        10.78012037280134   11.62716349566746    5.36237808399227
H        10.90203387485261   12.60984765285784    5.78825824369743
C        11.92583601142523   10.86784161334050    5.10637934729046
C        14.30025609394470   10.74477732163884    5.19019734248625
H        15.10130539782909   11.40613469033600    5.51562256469721
H        14.33531149817443    9.81975005887319    5.77374256770024
H        14.43129410468220   10.51303576668412    4.12878429622925
C        11.78592165310899    9.59444589464015    4.56032385536302
H        12.64686138983165    8.98295068279231    4.34490293634423
C        10.52832477762746    9.09482626752929    4.27543896938815
H        10.43221027680302    8.11566215067795    3.83198545697712

