51
CSD_code = FELTEY | q = 0 | S = 0 | Stoichiometry = C24H22AuN2PSe | MND = 2
C         1.49361811676043    8.06351344697458   11.14224317269191
C        -0.34633746825567    7.20631172732480   12.16460991348458
C        -0.52828498748698    8.41745824990792   12.82100841493964
H        -1.34902533789110    8.56534370720974   13.50528999315919
C         0.39207996038965    9.43322500460968   12.56252799020438
C        -1.27698954782723    6.04987000557994   12.36243922402425
H        -2.23600359560595    6.26240278898597   11.89033384371721
H        -1.45039421479261    5.87827449964688   13.42326739814960
H        -0.85964777140926    5.15452829840936   11.90822897532696
C         0.28994339381931   10.77472228210442   13.21325608253545
H         1.11052288168640   11.40123566100244   12.87698976906484
H         0.33140971163325   10.67090822089788   14.29642192222568
H        -0.65671847835638   11.24633597698647   12.95366696515607
C         1.55857045001916    2.24180220949926   10.41118662266041
C         1.68945986641942    2.63966837369093   11.74043682231183
H         1.48655983223351    3.67066765881907   12.00363035882970
C         2.08203126207309    1.72576288426363   12.69893885427008
H         2.17974150064812    2.03222894168617   13.72974132226578
C         2.36019383300406    0.41735001474127   12.33234877093339
H         2.67235876260892   -0.29640821731052   13.08007350129042
C         2.24715326266131    0.02508981452971   11.00855795844688
H         2.47265205030474   -0.99257900595597   10.72533406192084
C         1.84735728490821    0.93267626480272   10.04306092879665
H         1.76127493521039    0.62929554563140    9.00880782885372
C        -0.75549303766140    3.61415554984936    9.46496980510314
C        -1.39319192824080    4.70245755431445    8.87400926482043
H        -0.80404639132081    5.41762173876553    8.31422768266537
C        -2.75702131750214    4.86637706276900    9.01831079329392
H        -3.25049356524104    5.71052884205417    8.55994393653661
C        -3.48733075818184    3.95286485977071    9.76348651684836
H        -4.55222811443194    4.08520935257739    9.88501127758480
C        -2.85362629820627    2.87481544080680   10.35930836799077
H        -3.42419708151187    2.16696712828831   10.94252202493871
C        -1.48834708765941    2.69986633694006   10.21343115170921
H        -0.99178428295310    1.86099208021039   10.68191294376152
C         1.24587102053734    2.76420121442825    7.61426546726479
C         2.47296505271294    2.95036301139934    6.98317549824692
H         3.23272020020392    3.54499792171468    7.47491913196101
C         2.70360475349969    2.38653667580245    5.74249495870177
H         3.65554827489535    2.52942923857553    5.25341128093685
C         1.70771004695734    1.64563127321502    5.12520522585332
H         1.88504476316054    1.20882277339953    4.15370623920476
C         0.48195022736790    1.46866351033903    5.74750082348401
H        -0.29308577264385    0.89458191318738    5.26114531972929
C         0.24488859339690    2.02558546721096    6.99139831894127
H        -0.71109406547012    1.89136907384357    7.47925218422577
N         0.66570008056360    7.03366306388857   11.32566604864360
N         1.39734747952713    9.24454414799378   11.72389544690992
P         1.04154572778340    3.52806141024541    9.24499119495365
Se        2.89367013254944    7.77900654308883    9.96036355514496
Au        2.00744764511109    5.55300246124735    9.57067484530157

