89
CSD_code = FELYIF | q = 0 | S = 0 | Stoichiometry = C42H38Cl2N4P2Ru | MND = 6
Ru        3.09393528789868    3.20714718154017    2.41756997318611
P         2.64668837184959    1.51158351550610    3.94399536935739
P         3.59385117723214    4.85437353665392    3.97998835825247
N         2.53138981442519    1.93941105488566    0.85453810674497
N         3.44696503152213    1.27987400130456    0.15053673318984
H         4.41767151954984    1.31194976205369    0.48195101896417
N         3.60344394807340    4.52326358470027    0.87662071807974
N         2.66477492389873    5.20472561738768    0.22583927399421
H         1.70605698544077    5.16192514579385    0.58921534462561
C         1.36099450394482    1.69465106380642    0.28637109790850
H         0.45453490567385    2.12186187889180    0.67116683723872
C         1.53549921540726    0.84590504961568   -0.81008286889957
H         0.77603664001180    0.47251219964701   -1.46501897969705
C         2.88903949480813    0.59741445283470   -0.85876426653731
H         3.47240483749732    0.00078983762388   -1.53002173309377
C         4.75383829487283    4.78619122786094    0.27660464029664
H         5.67263421373983    4.34708250623700    0.61612581976132
C         4.54254436930719    5.66937526108156   -0.78561577057544
H         5.27947318985203    6.06353427030561   -1.45399025446233
C         3.18838234081003    5.91905857822683   -0.77983432667961
H         2.58285628337236    6.53668435585950   -1.41132227905163
C         3.44930550733141    1.65572840282917    5.58203437310476
C         2.82945018939354    1.35549256758116    6.78904957549328
H         1.79890889257378    1.03383037601005    6.81047671010463
C         3.52658928332137    1.48355844066438    7.97771346258726
H         3.03410678895279    1.24754071794644    8.91006902984918
C         4.84210478486798    1.91357060299453    7.97980831026956
H         5.38061764684157    2.00523387554135    8.91175077994879
C         5.45828774725056    2.24073531391052    6.78372976453546
H         6.47899763245649    2.59538208886878    6.77452495242243
C         4.76278916593677    2.12099948757322    5.59593813520886
H         5.24059730266782    2.39083177255658    4.66472124219503
C         3.37300987866459   -0.05417561436667    3.31895870779741
C         4.62422656839351   -0.52890132372994    3.69132830188222
H         5.20416183105615   -0.00415392181259    4.43566460711545
C         5.13513882598124   -1.67393078609481    3.10530091439430
H         6.11058282725227   -2.03282438469189    3.39978315867150
C         4.40833682012010   -2.35412419348561    2.14356083753172
H         4.81454262867808   -3.24364131749950    1.68450021519227
C         3.15546819665300   -1.89195056206822    1.77422836740167
H         2.57824199115941   -2.41993300249616    1.02838560309368
C         2.64074714849267   -0.75103842539852    2.35896119725302
H         1.65734457970335   -0.39524158094844    2.07644446331503
C         1.00543705277478    0.82154333461453    4.36835164773436
C         0.94271960122927   -0.40877668774860    5.02433104531467
H         1.85789288479533   -0.92965163423796    5.27356491992867
C        -0.27858162963717   -0.96609405524385    5.34743283069422
H        -0.31614299222083   -1.91768484216391    5.85836313041833
C        -1.45402375470475   -0.30997083619815    5.01345263392329
H        -2.40818420963911   -0.74937505623726    5.26606555422227
C        -1.39920102162910    0.90102087530342    4.34791508898315
H        -2.31119925608655    1.41125485409319    4.07365886196298
C        -0.17538163882097    1.46470053482994    4.02517922237630
H        -0.14473258048798    2.40080457625583    3.48939447987101
C         2.85050311540231    4.65615030576860    5.64014609242108
C         1.53811340786288    4.18988135934164    5.68572877095975
H         1.02670328982410    3.95239865356497    4.76362233118512
C         0.88628088875584    4.02836940278732    6.89317673889296
H        -0.13403730345771    3.67282978435998    6.90889602847131
C         1.54564947048144    4.31483719040253    8.07663998577820
H         1.04150553946977    4.19037630756128    9.02386834407577
C         2.86021762494729    4.74633025647486    8.04149914841338
H         3.38620632540224    4.95111889351932    8.96287445684127
C         3.51387789176077    4.91542827328172    6.83345186000825
H         4.54469741388859    5.23689087261937    6.82854820929691
C         5.24873917638298    5.53318989211478    4.36750766217746
C         6.41685958227483    4.90507692827526    3.95927428615364
H         6.36750784851983    3.98752299182898    3.39360755074272
C         7.65101559872563    5.46060905632215    4.25582772317228
H         8.55294590306517    4.96250042796790    3.93073629604008
C         7.72869089098999    6.64815858533108    4.96021865141306
H         8.69091201630050    7.08105620174286    5.19268475957933
C         6.56551268767884    7.28947552163159    5.35954072767465
H         6.62063826648298    8.22299261037364    5.90127146937492
C         5.33388457386012    6.74056128782246    5.06238515045466
H         4.42777186711103    7.25029049319655    5.36259116813081
C         2.84568105740328    6.43847877455134    3.43157644330610
C         3.54306502306042    7.16556385904626    2.46805302753404
H         4.51523696195519    6.81915803908257    2.13877457783039
C         3.00841178311617    8.32428201391568    1.93885761750621
H         3.55845290820360    8.87562359282894    1.18937705455037
C         1.77039946562262    8.77435370484015    2.36834395393958
H         1.34854822698071    9.67791883028771    1.95289991895829
C         1.07864955066118    8.06395638039608    3.33408114457938
H         0.11509858385158    8.41334293474351    3.67547151476430
C         1.60943760378031    6.90093079199747    3.86436408496429
H         1.05661788943592    6.35279241195547    4.61248722050360
Cl        5.30441328939684    2.22278182369990    2.16447063412489
Cl        0.87661753829475    4.19759786739285    2.27143045878054

