99
CSD_code = FEMBOP | q = 0 | S = 0 | Stoichiometry = C38H52N6P2Zr | MND = 5
Zr        4.94309399093041    4.59472270120871    0.58462203950178
P         3.86691943734916    5.18227451886211    3.15393961241753
N         4.42824241273323    3.78931441257049    2.48056321870574
C         6.08134623327340    6.87144148625987    2.96474499724698
P         3.75894873929895    7.11417370483344    1.26883437605392
N         4.25436842385852    6.47611343071122   -0.16256552784752
C         7.07852506199789    7.44145708251200    1.95034956344303
H         7.22942481225393    6.71006203576655    1.15151411976629
H         8.03120614004985    7.66023900632739    2.42968080407692
H         6.69770833091040    8.36485765654027    1.52208151328197
N         4.97987235377128    6.24564579393273    2.25155658339822
C         5.57592461462570    7.97872829771923    3.89649924228739
H         5.05989077925196    8.74364253763525    3.31767591211330
H         6.40040913690529    8.44170242379813    4.43470449558778
H         4.87324281788964    7.56256619714285    4.61723457246511
N         2.77721787953351    5.72202581254034    1.85624400035259
C         6.77446978258983    5.77713293444502    3.78628914152321
H         7.05705562199653    4.95427565551462    3.12658166254984
H         6.09615575657813    5.39563994056568    4.55068415149764
H         7.66280195699487    6.16834081682934    4.27876862462227
C         1.36635807224018    5.90383108820133    2.17958889182309
C         1.18473663901863    6.91016149712338    3.32322895658682
H         1.63521035598638    7.86199166841745    3.04646572714123
H         1.67496310431527    6.54002191184193    4.22205871078697
H         0.12991844867847    7.06813146881106    3.53685040459891
C         0.78792769032768    4.54878823034100    2.59981986254847
H         0.83563460138293    3.84269606843017    1.77420615968023
H        -0.24791801606706    4.65487029997558    2.91446917956618
H         1.36759967992492    4.14171990596083    3.42925025582068
C         0.62944296211889    6.42558108489264    0.94355897942489
H         0.76799059032962    5.75270975123606    0.09987716659711
H         1.01881702441390    7.40376838260898    0.66711012832523
H        -0.43555236395860    6.51748105180235    1.14508151135658
C         4.47800606223216    2.53901948327522    3.21216692558022
H         4.55746314302327    2.72329306331148    4.29783109829723
C         5.69636158627297    1.75907776217394    2.75563643971500
C         5.83049369122640    1.43952181317955    1.40508166719282
H         5.06418627566190    1.75176170660655    0.69975439958778
C         6.91455422061058    0.69218205214177    0.97510006185769
H         7.00136583730525    0.42330652520394   -0.06812001986781
C         7.88157375199464    0.27561710849191    1.87680657173222
H         8.72508370122611   -0.30810065638379    1.53872243780948
C         7.76094669795186    0.60851866532249    3.21438530029656
H         8.51310363846742    0.28999777612685    3.92143335765666
C         6.67066197642661    1.34239359288077    3.65243718269391
H         6.57666907926190    1.59028885188646    4.70066236967220
C         3.25902300820556    1.66190857529210    2.97711138140753
C         2.56031281761170    1.74471193649168    1.77987955702907
H         2.88441973331870    2.46873935257187    1.03617228810524
C         1.46440730777990    0.92978376282679    1.55565916734888
H         0.92363530116958    0.99973866588505    0.62226552463032
C         1.05657192424070    0.02642208250810    2.52274705912194
H         0.19955630507323   -0.60751653603995    2.34791268123839
C         1.75081921760602   -0.05937339700360    3.71748261798533
H         1.43548371290612   -0.76023217868528    4.47686547625323
C         2.84818688498825    0.75299658677935    3.94268512050618
H         3.38875561125038    0.68256747058654    4.87641264175554
C         4.01419516742752    7.02665358277878   -1.48481603441607
H         3.95162864550081    6.17118898810723   -2.18341859621813
C         2.70642897486709    7.78841589810150   -1.58596237398106
C         1.64022902363365    7.26124128270525   -2.30291280192639
H         1.75310166653170    6.31400262266297   -2.81154017166017
C         0.43166789440512    7.93198306126428   -2.37315851235663
H        -0.38759122810126    7.50513789938669   -2.93338427122904
C         0.27302517999058    9.14607771536938   -1.72904324753658
H        -0.66901598338782    9.67145086150729   -1.78225903077107
C         1.33303545877005    9.68581489508848   -1.02022317158283
H         1.22063195530611   10.63717222845203   -0.52081896415390
C         2.54074287706332    9.01445788080400   -0.95152837909372
H         3.36295253334803    9.45462352977376   -0.40856487476831
C         5.13212723681434    7.92366430939189   -1.98920583455871
C         5.48680337118599    7.90864387873013   -3.33257560319255
H         4.97536329529313    7.24234763824113   -4.01393241882862
C         6.48754312948777    8.73905467646482   -3.80395787653196
H         6.75606768855809    8.71661314780515   -4.85024729417905
C         7.14632362163370    9.59623800563640   -2.93864833817296
H         7.92952381516824   10.24225660825627   -3.30720378121273
C         6.79553320251681    9.62090715680842   -1.59981841741940
H         7.30314727428968   10.28975533761447   -0.91955645785713
C         5.79300520370740    8.79072145153724   -1.13377883015731
H         5.51228392125870    8.79902589484358   -0.08980707182679
N         4.11881329835653    3.37617507760172   -0.83931850486732
C         4.89695634331435    2.74851689425699   -1.88554251328238
H         4.43653621614539    1.79287414354200   -2.20410467701407
H         5.90908970025568    2.53803537159179   -1.52812369472795
H         4.97047768809033    3.38334733958582   -2.79345747114831
C         2.78082477522289    3.64485731918151   -1.32287915388707
H         2.78736675551476    4.18064269676200   -2.29440468127908
H         2.23254677712015    4.25421215103843   -0.59337609738158
H         2.21637527298026    2.70605990513334   -1.49525311799862
N         6.93871218311472    4.59070676124592    0.14194135071259
C         7.32455666105362    5.12631483605283   -1.14814583941205
H         8.19232991055683    5.81006768662361   -1.06018743436675
H         6.49359709024986    5.68774742733543   -1.58936406650157
H         7.62914300550344    4.32995780936916   -1.85671077433184
C         8.03877165527986    3.84261639949620    0.70451556147089
H         8.93049101755405    4.48479232996187    0.84483594077974
H         8.35496141716147    3.00643547615621    0.04879458673325
H         7.76470175076811    3.42025890268494    1.67628259516642

