73
CSD_code = FEMDUY | q = 0 | S = 0 | Stoichiometry = C38H28MoO2P2S2 | MND = 6
Mo        1.47470960396664   10.09950215009396    2.84408239855511
P         1.30892086395362   12.26334613857462    3.73208856060782
S         0.15204352330881    8.57952346734266    1.53533698118624
P         3.09694904116692    8.80513051397692    1.74669346016982
S        -0.21129391218308    9.80126153665912    4.51497193410252
O         2.27278367042917   11.60192113317941    0.26495273854608
O         3.69747376998024   10.35465840277107    4.97156270072359
C         3.21923097080133    8.15941842091770   -1.04290845068057
H         4.29581460577696    8.25177563788157   -1.01676378114622
C        -0.93996584706913   12.63748073993994    2.16749513886586
H        -0.82769992637566   11.57825280837088    1.93864902604359
C         0.75934472718538   12.18427366061998    5.44717578135586
C         3.00643980849032   14.01841252572687    2.47822230864060
H         2.27199355806633   13.98920813382020    1.68305280882181
C        -0.15079197421174   14.61497602871837    3.30000383548193
H         0.57444506106991   15.09432928535141    3.94419522479255
C         0.07275466471796   11.00244223380710    5.75539106352043
C         2.75417554077388   13.33587075546084    3.66814265528728
C         4.79011342142405    9.39073936706883    1.51679187483314
C         3.35429751728528    7.20446219774968    2.56165152998070
C         2.03447628976791   11.03258510982128    1.23863470232104
C         5.12046125544324   10.71723136539765    1.76769712139108
H         4.35948626725085   11.40527254656458    2.11742426805864
C         1.07612712457748    8.28786862333711    0.07560092474612
C         2.87154871175254   10.31065201967514    4.16951390127221
C         0.91544605837487   13.17788275823436    6.40603723013014
H         1.42743780441140   14.09641158358581    6.15357830866949
C        -0.01172463653578   13.26404940745435    2.98980954612816
C         2.47628230491652    8.36740950565288    0.11064931051734
C         5.77530834265753    8.49740924776437    1.09704802267125
H         5.51879718861212    7.45797780856272    0.93436585023813
C         4.18454405565896   14.72304884388572    2.32125961319127
H         4.37705893982939   15.25049010685970    1.39859350176543
C        -2.12866760443938   14.70739373427774    1.94586145920662
H        -2.95325408573388   15.27270833088504    1.53725847968410
C        -0.25156777579497   11.80525837215735    7.99277684613871
H        -0.63887795972132   11.65656168887963    8.99000926089433
C         2.57078743061207    7.84350239466687   -2.22490555625470
H         3.14496671159382    7.68422645865472   -3.12518922169351
C         0.43911254857162    7.94521569090363   -1.11100482839765
H        -0.63765061016745    7.86843768556177   -1.12668241556068
C         3.69876416211313   13.35661956838059    4.69167185687432
H         3.51226564825686   12.81728547641465    5.61016428307170
C         2.65452645878777    6.06470948288073    2.17880301389871
H         1.99322663297416    6.09611110068865    1.32236333449504
C         6.42171953916818   11.15085136507605    1.58398803939232
H         6.67326916169220   12.18200021915568    1.78405912857774
C        -1.99674713999490   13.36187815381680    1.64486956377147
H        -2.71756593441867   12.87621016805673    1.00390360653000
C        -1.20666814558613   15.33258479111352    2.77231150011124
H        -1.31470712665562   16.38169419677218    3.00633295484871
C         5.11963239432027   14.74673806462342    3.34488613001297
H         6.04122864392391   15.29632117630082    3.22042591404551
C         0.41605132929315   12.98192659058715    7.68123706771959
H         0.54245121036431   13.74777246091225    8.43177890456942
C        -0.43567116269430   10.82396999966994    7.03760962192561
H        -0.96759975669042    9.91355808254142    7.26940127605888
C         7.07166011552574    8.93843082538986    0.91082265043304
H         7.83392824628192    8.24658944004567    0.58325681900964
C         3.64727458469686    4.85502708777041    3.99857988457966
H         3.76046436045775    3.93876232797869    4.55902355983909
C         2.80726035493037    4.89265910697330    2.89807318124177
H         2.26478484823222    4.00743377458009    2.59997743706193
C         4.87473077785705   14.06626332097910    4.52666296274056
H         5.60520387375318   14.08371337437326    5.32213672505726
C         7.39478891454441   10.26538171067019    1.15100705109072
H         8.40968193065748   10.60575566685458    1.00805939541993
C         4.19220130079964    7.16753301730205    3.67512870481394
H         4.72590721790420    8.06250527857648    3.96982849311945
C         1.18818688407580    7.73065821022206   -2.25304372809036
H         0.68861299115337    7.47978730685453   -3.17717406187795
C         4.33906565417935    5.99273569219830    4.38650745480558
H         4.99013497990372    5.96325454144150    5.24792316005072

