73
CSD_code = FEMFAG | q = 0 | S = 0 | Stoichiometry = C38H28FeO2P2S2 | MND = 6
Fe        5.45859032288442   -0.00215145516441    9.82795930583376
S         6.41876293234291    1.80177364720188    8.74602148679131
P         4.73009084673370   -0.61617384185937    7.88707744294514
C         5.44631978600302   -3.29916224529010    8.05600456433026
H         6.05540002007563   -2.99278239773137    8.89392666952503
C         5.80412266281133    0.15278745933299    6.64794370208468
C         4.65319409966821   -2.36266658576471    7.40334467696587
C         0.47856324052239    0.87730410357256    7.09621346964939
H        -0.53002320921114    1.23375479876142    6.94659513039824
C         5.91144223727406   -0.27622800742533    5.33070900766560
H         5.36235053344339   -1.14944113059165    5.00676739718336
C         7.33203207427850    1.95921070782348    6.18504462300704
H         7.87918710539638    2.82377914895246    6.52803440876342
C         6.72442540271033    0.40862036531627    4.44681435739378
H         6.81352922626449    0.07236400312773    3.42488834921493
C         4.62692487529237   -5.01504928266940    6.59471159744632
H         4.61470210119845   -6.04822995388624    6.28025182056173
C         2.83402773382726    1.08223107323943    6.68001199554749
H         3.66711808549629    1.59315728402324    6.21565657648852
C         3.82969129072769   -4.08579809947179    5.94520735325542
H         3.19709643004363   -4.39384592763635    5.12527354919749
C         7.42439567733922    1.52890255719477    4.87744990723301
H         8.05605033891549    2.06547952081502    4.18472442895741
C         5.43031776516540   -4.62180153330379    7.65193770710815
H         6.04283160148988   -5.34717468635897    8.16638956959481
C         1.53801929134746    1.52983736685609    6.48851530173291
H         1.35652724403031    2.39478402228047    5.86718946933453
O         2.88201186432748    1.16711940973210   10.47403015678482
C         6.53041112935768    1.26808151339322    7.09231975070162
C         3.83729348610410   -2.76312658326189    6.34635007818383
H         3.20258990358881   -2.04013275665823    5.85092409470936
C         3.06249699464223   -0.03377242197411    7.47553249411412
C         0.70805082280465   -0.22643768242616    7.90497498631677
H        -0.11929958578987   -0.72588395752129    8.38734283196268
C         1.99694419125949   -0.68033601039255    8.10088532395465
H         2.19966565380511   -1.53136107255210    8.74039046308503
C         3.91610844737820    0.76839392765323   10.19797040514125
S         4.49818116600429   -1.80478614234507   10.91146582407005
P         6.18828589781049    0.61443596603424   11.76754261568077
C         5.46494241150704    3.29521528643704   11.59679882749844
H         4.85413308343032    2.98587486669345   10.76124668238144
C         5.11696497802575   -0.15546908832656   13.00834304988238
C         6.26213431666951    2.36176555890756   12.24891600186045
C        10.44340350545254   -0.87060564035079   12.55475594810243
H        11.45281003078627   -1.22506433306260   12.70360040161151
C         5.01227053028339    0.27348542766811   14.32583915668519
H         5.56191193118929    1.14683753361757   14.64852159322193
C         3.59072968347956   -1.96244246843955   13.47438880796959
H         3.04317651166743   -2.82724701505651   13.13261000407257
C         4.20136399105065   -0.41162215172609   15.21140781792042
H         4.11422525774977   -0.07543834336921   16.23352407183195
C         6.28473707839425    5.01591143614527   13.05212735761697
H         6.29567366902307    6.04978775221457   13.36434393207669
C         8.08893480578819   -1.07845857446210   12.97516389662289
H         7.25740022393547   -1.58998936163921   13.44162593594398
C         7.08588138135566    4.08972915434154   13.70118309925649
H         7.72022850549568    4.40088753330396   14.51858759931260
C         3.50090332497084   -1.53215262245651   14.78216087550021
H         2.87088781035986   -2.06900400407829   15.47617041047435
C         5.47903314881054    4.61867758000916   11.99815441921877
H         4.86329552324004    5.34155652065726   11.48403957337611
C         9.38594893480499   -1.52369991729300   13.16535453520691
H         9.56980343784134   -2.38720139728033   13.78802539686965
O         8.03306866841783   -1.17658223243195    9.18305574777036
C         4.39022213249206   -1.27104317373052   12.56541244789654
C         7.08006347642586    2.76619048867019   13.30280487415098
H         7.71782027817612    2.04570446498049   13.79795232883415
C         7.85741586664919    0.03572606437526   12.17795029025513
C        10.21087633608945    0.23135234048072   11.74442101629420
H        11.03668119975865    0.73137074892968   11.26001657453763
C         8.92095682312241    0.68286697600467   11.54974682722073
H         8.71586440975264    1.53238324043915   10.90898310390404
C         7.00000704644063   -0.77497775119564    9.45877450170766

