117
CSD_code = FEMPOD | q = 1 | S = 0 | Stoichiometry = C49H58CoN8O(1+) | MND = 4
Co        0.25118873439196    3.84166116216959    5.40776874877374
N        -1.41022002380804    5.40848108445491    3.33336779016899
N         0.85785319679528    3.16268722463729    4.02162696398156
N         0.50210190031307    1.10008592066922    6.60671646812649
N         1.80364582945247    5.59882159378355    7.19624178821592
N        -0.14619109066953    2.40301065725797    8.17819380970220
C        -1.31780016792074    4.56402591477149    4.39199423506006
C         0.15572876971665    2.38939873407063    6.85161063039776
O         0.04052629853945    0.24550930013657   -0.56306589334043
C         0.59657879469580    2.53080221815135    2.88472783865589
N        -0.19338933503720    6.37914109358124    7.19909660322192
N        -2.59972550431408    4.23402985943395    4.68029403131097
C         4.76040523859972    3.46613367597495    7.81344022256664
H         5.17742590309085    2.87025817456771    8.61227079814933
C        -0.36265513378648    5.89972715131521    2.49871405471436
C         5.46480279485563    3.60135182606191    6.62682959095142
C        -0.19291954222829    5.32767318476175    1.23420731343739
C         0.56025001300530    5.35621680891771    6.70922514969271
C        -0.72467542772385    1.04598629937286    1.49293389220609
H        -1.61632204570191    0.46634970522566    1.30910149374176
C         3.53763516469022    4.09101224038665    8.01361026452671
C        -0.64187645378803    3.48888760813072    8.98183916751114
H        -0.18286095955919    4.41643730402779    8.65075580953745
H        -0.35156022477451    3.29557721017520   10.01730118484175
C         2.83663347525049    3.90062271440130    9.32668427325763
H         2.28201406046233    2.96237605507584    9.31397631024059
H         2.14380634706006    4.70858111998750    9.54651946406538
H         3.56466876467397    3.84284601626346   10.13254920166146
C         3.00231346538316    4.85870090135104    6.97801503798865
N        -2.54970349248691    4.48453820006771    7.79372798590950
C        -3.47233931704850    4.88374198369655    3.84631331673317
H        -4.53340149084826    4.76068400712330    3.91479141753997
C         0.10040043810738    7.74287645414692    4.14692051460432
H         0.34998262942930    7.13553511923583    5.01021985478302
H        -0.95950223045488    7.99005817745115    4.19519157345826
H         0.67290928068240    8.66544275325947    4.18979602543555
C         0.56456265653165    7.22145323294435    7.97327724670090
H         0.15515133017135    8.09093418627732    8.44428395053803
C         0.85460110049789    5.77240636784832    0.44256817831119
H         1.00222956854056    5.31882463834649   -0.52635960179139
C         1.58975352173066    2.51176912379194    1.88059048737279
H         2.48832193298566    3.08661520736629    2.04723353328839
C        -3.04448975488640    3.31031401090850    5.68844877789132
H        -2.18028741529025    2.71061907268067    5.98594631118722
H        -3.81387915470093    2.66701286206861    5.25203905054514
C         0.28472755610262    1.02209497039304    0.52273371825806
C        -2.72343219613085    5.61796372746092    2.99637377901364
H        -3.00501459435471    6.26345875324422    2.19066120887772
C         3.69758108766397    5.02310236790316    5.77598398811846
C        -1.15483086847391    4.32589760994087    0.67321381375964
H        -1.62068849674154    3.72056752893441    1.44451026471350
H        -0.64921248910141    3.66230598992914   -0.02229753605403
H        -1.93968630793684    4.84812415971458    0.12395036544662
C         1.82325743784392    6.73352082942005    7.96685597308522
H         2.72067758661528    7.09386120840364    8.42603994576922
C        -0.58042693233643    1.78336720468957    2.63797138693138
H        -1.36022535783430    1.79107283075941    3.38612790482045
C         2.83736729490846    7.22939363291657   -0.01826274593143
H         3.29441548007200    8.13961545976414    0.36103801268635
H         2.49597404081651    7.40586073924092   -1.03674747257902
H         3.59800895871280    6.44963639452504   -0.05498802007457
C         2.16735195594722    0.53153779207503    4.91272903660224
C        -1.59793357762999    6.60768847028716    6.98714126957327
H        -1.86609619164637    6.23894419003404    5.99895445901378
H        -1.77667946064031    7.68503895162575    7.03059702739639
C         1.44104845819921    1.77506859079610    0.72974468985022
H         2.23220708894851    1.78352263970901   -0.00398796236751
C         0.85840054864988    0.45725478085428    5.38572137458934
C         1.57432826300637   -0.98096358390542    3.11763617457155
C         4.91766075209593    4.38418145361006    5.62054057188528
H         5.45731320952048    4.50928067864321    4.69350197590452
C         0.01213005992344    1.15818097799120    8.73174953472126
H        -0.17558672758895    0.96353442904789    9.76755427755876
C         3.18292492774339    1.35976317728899    5.63001409977410
H         2.88593206231767    2.40747976323637    5.59545810163235
H         4.15957478258386    1.25879107770544    5.16711583703125
H         3.25998195160475    1.06423871004582    6.67606169099326
C         0.40794678480509    6.99451691523271    2.88776545799405
C        -1.47822315481121   -0.50157927452162    5.30833238097002
H        -1.50909485457067   -1.28906825817530    6.06239060180833
H        -2.16686725014172   -0.77542134460683    4.51350043384960
H        -1.82386512713392    0.42042668946009    5.77081037220531
C        -3.60930965377134    4.02124573170519    6.93318502841316
H        -4.22171299128494    4.86779499533215    6.60983615028252
H        -4.26786304801639    3.31915414649211    7.45981069421019
C         1.69974312424070    6.79421286355951    0.85068365441339
C         0.28983998824475   -1.06683681931190    3.63387734738627
H        -0.43579409457717   -1.69999211137487    3.14525110596135
C         1.43896706794200    7.41597826599862    2.06169653827576
H         2.04232040663096    8.25793512423401    2.36767785561887
C         3.13829368864512    5.86887080241338    4.67725848933884
H         3.85743849929959    5.97506434379890    3.87045632205444
H         2.87568479388943    6.86062169102311    5.04215400170310
H         2.23692662010306    5.39832675638019    4.27602439928355
C        -0.08719238073427   -0.35838799022219    4.76399785498797
C        -2.47574995671710    5.90337080523809    8.03758885659387
H        -2.05204404226721    6.08288271567395    9.02902453905636
H        -3.47146438222677    6.36826864769197    8.01334557376419
C         0.42526596796346    0.34003675932512    7.74261741312532
H         0.67403268771994   -0.70089556313535    7.74618922780528
C         2.49899212304369   -0.17937645858857    3.77030582572485
H         3.50798811509947   -0.11447673432074    3.39053674687933
C         1.01115128657356    0.17258544074904   -1.58136216214899
H         1.19175654551939    1.15200924332654   -2.03498916597954
H         0.60050831768586   -0.50003710954700   -2.33227637141111
H         1.95514187811180   -0.23541443280783   -1.20722874371228
C         6.79662241253962    2.94220695677801    6.45381125000504
H         7.57385655692431    3.54823359021420    6.91959323632168
H         7.04264809312202    2.82995775593415    5.40116794909812
H         6.80917288540105    1.96386926066855    6.92871129308321
C         1.95192163877609   -1.76572400219214    1.90078956599792
H         2.86231339531193   -1.37420486493634    1.45363580019940
H         1.15052259281914   -1.74094915772375    1.16566260446883
H         2.12547677578078   -2.80836969910843    2.16852193814597
C        -2.17386176604676    3.63383415463172    8.89454692785422
H        -2.61301217721545    2.64417707024032    8.75398029961149
H        -2.54162011398235    4.02944943203649    9.85358709492228

