66
CSD_code = FEMPES | q = -1 | S = 0 | Stoichiometry = C30H29O6W(1-) | MND = 6
W        -0.31613854457795    0.36096576446684    2.46527794905001
O        -2.78235857330455    3.99116636786804    4.62626354234228
O        -1.49026918602274   -2.08335951376264    0.88658852620073
O        -1.24270326279830    2.30525172127102    0.17917893551068
O         1.16724313343998    2.62942045673919    4.04768819940341
O         0.43383020530276   -1.61030194971749    4.79360154847339
O         2.31877496283670   -0.13827879497898    0.84889352892680
C        -2.23182215929862    0.65753183641799    3.65329533618378
C        -2.31686558068902    1.66203923936293    4.44405455749666
C        -2.27078563153292    2.78743347049379    5.15431329070234
C        -1.70425125921687    2.84838421295962    6.48263812217667
C        -1.11143947887440    1.71805270162118    7.06175439186499
C        -0.55988869184669    1.78018119886811    8.32243878151939
C        -0.58298303033079    2.96539218423743    9.04485585822440
C        -1.16321496602814    4.09152122887381    8.48241659955645
C        -1.71654355773841    4.03753820507808    7.22019817688813
C        -3.19315772800224   -0.43393765446384    3.52284068166420
C        -3.96191571807561   -0.59227590000866    2.36678496969393
C        -4.83680123218512   -1.65225977657348    2.24155629818302
C        -4.96085220104756   -2.58502792462278    3.25926782237070
C        -4.20591678213868   -2.43804004752519    4.41152990930189
C        -3.33945345916054   -1.37156558594261    4.54831737681121
C        -2.19815824250413    4.37447857261145    3.39847230625275
C        -3.21260642668072    5.16997760008906    2.56407578763879
C        -2.55417022211952    5.53837102478007    1.23375354801860
C        -1.28980370211758    6.36407903583158    1.45670358055133
C        -0.28383712125396    5.59919414069825    2.31650285298820
C        -0.94284561076865    5.22106750003268    3.63898895751043
C        -4.54718341086978    4.41281598849043    2.42367651335444
C        -4.45000186984145    3.15917862607662    1.55917189223962
C        -5.65317482824590    5.32759229876360    1.89730365455982
C         0.98240986572824    6.41783001961688    2.55194800722487
C        -1.12888574272321   -1.16854151120419    1.47979056359353
C        -0.92731651652007    1.60874780903088    1.04072380426255
C         0.57026000817109    1.83321596384516    3.47640397060678
C         1.35196355758026    0.05102231369334    1.45175537017736
C         0.17993977550716   -0.88697699269617    3.93811170246764
H        -1.08266980399396    0.79748515916508    6.49507867659223
H        -0.10097508054038    0.89894756168975    8.75178471742870
H        -0.14915317661181    3.01002192822476   10.03491941728813
H        -1.18116515004613    5.02133663040783    9.03765895243302
H        -2.16733284832402    4.91448315942859    6.77936927482357
H        -3.86287097675065    0.12339718313539    1.56061702773382
H        -5.42545681018541   -1.75779899270271    1.33949697782749
H        -5.63963324545407   -3.42057338920011    3.15389483119407
H        -4.29826644716659   -3.16055933502681    5.21216281827056
H        -2.75482756423167   -1.25849216172379    5.45137289698372
H        -1.90132714735717    3.47279179296749    2.83993007290832
H        -3.42885735746971    6.09394574730804    3.11591824448652
H        -2.28641140667659    4.62760881657882    0.69737958430735
H        -3.25323930716442    6.10627828900829    0.61564563078313
H        -0.83868483736151    6.61225111546039    0.49190248061206
H        -1.54803198027556    7.30279282110109    1.95586096284908
H        -0.00895722946123    4.67545870397879    1.79368071366323
H        -0.24857709162338    4.65331501267203    4.26139294318967
H        -1.22389307345592    6.12325165103634    4.18972691766180
H        -4.81994728506943    4.09875818465689    3.43707811419690
H        -3.67540164685386    2.49702579872993    1.93575892447457
H        -4.22994084418854    3.40894544619326    0.52337177559792
H        -5.39508079108484    2.61869373223185    1.58683104411128
H        -5.73587065041472    6.22633039168798    2.50571312952494
H        -6.61015121229295    4.80942473013028    1.92132132742464
H        -5.45692468187222    5.62370638509431    0.86858175749821
H         1.69038070805210    5.85034900624946    3.15119308860449
H         0.74677242558925    7.34090748908980    3.07955960935655
H         1.45721774020312    6.67323331206367    1.60606117422169

