36
CSD_code = FEMTID | q = 0 | S = 0 | Stoichiometry = C15H14ClN3O2Pd | MND = 4
Pd        7.57442825429958    5.93271339413952   13.98349461541012
Cl        6.83428865935660    7.59314234946848   15.36062703244544
O         7.85804797412651    7.36548889524145   12.67379383507680
O         6.76251910067213    5.01949108789851   16.53092412850067
H         6.65792424393396    6.02249382284308   16.43223530548098
N         8.24895790793484    4.58598685393091   12.67530147721062
N         8.34994816198755    3.28117638876814   12.93093549924667
N         7.26597724271246    4.58530716905826   15.32413691848397
C         8.30126174279992    7.32082786213913   11.48298263047896
C         8.39100795088634    8.57230556754916   10.78562241700020
H         8.07311046687926    9.44742280291212   11.33203593101269
C         8.84957795050082    8.64521164130721    9.51950188372129
H         8.91160914883883    9.59783964266280    9.01287942857497
C         9.26139890802709    7.47989214807072    8.81145386147403
C         9.72797823881947    7.59265762596026    7.49361787571337
H         9.76799347024372    8.57388825903111    7.04296323097306
C        10.12507855624975    6.48594697808175    6.78711846348176
H        10.48332789641045    6.57848816071153    5.77313723890970
C        10.05876735952372    5.23469669804509    7.39545612343909
H        10.36605801887327    4.35628547448945    6.84724677791256
C         9.60555825864594    5.10334733492458    8.68732348968105
H         9.57360860867512    4.11049567715893    9.10604652199428
C         9.19434697503300    6.21414027836445    9.44146892046487
C         8.71178616018131    6.12223705071849   10.80832448555906
C         8.65776935453917    4.88221171673830   11.44701670916160
H         8.99041673036844    4.00794416430572   10.89519578678608
C         8.01375880098437    2.70456721529714   14.03551586022477
C         8.24063833255003    1.22060605247033   14.02867660265523
H         8.68886816928537    0.94208285285413   13.07998938524559
H         7.30162646030172    0.68311327048080   14.14395287130683
H         8.90577600753557    0.92412005059437   14.83646803190788
C         7.46836695673068    3.30172500910344   15.23519092542772
C         7.15096481092843    2.39732342125110   16.38913156685108
H         8.06462946832561    1.95618649507495   16.78327800673143
H         6.49106345649411    1.59302951690659   16.07321365307774
H         6.66836019634500    2.96480707144711   17.17914250837754

