78
CSD_code = FEMVOJ | q = 0 | S = 0 | Stoichiometry = C28H45BCuNP2 | MND = 3
Cu        4.44506684488645    1.81801616271541    5.24126303331098
N         5.57339733933882    0.67491040869722    4.42919644941557
P         2.36508466595247    1.51284580297049    6.01329436282966
P         4.72341988804420    4.03825252897506    5.44234922760097
B         1.92218680571328    4.44824215668697    6.41720671886596
C         0.40645334753514    4.63632407921847    5.86274705882898
C         0.07160153404217    5.00980678884073    4.56182498542689
H         0.85282112431389    5.18582303540895    3.83365341134988
C        -1.24198275913855    5.16930145503940    4.15344725075596
H        -1.45807387289890    5.45583084430459    3.13158758198618
C        -2.27814464855727    4.96664494318415    5.04612464256729
H        -3.30578495944618    5.08702052619994    4.73086833777382
C        -1.97880226649027    4.62104500080548    6.35299648767821
H        -2.77816442754141    4.47663099752299    7.06854863386906
C        -0.66262018169985    4.46630892971439    6.74458768957027
H        -0.45373349973568    4.21925648889055    7.77739799641407
C         2.10958440679679    5.61509830845496    7.53249458519596
C         2.28262860933127    5.39317431987844    8.89790242965825
H         2.31543737918715    4.38093557953493    9.27942371645480
C         2.41413934108285    6.43151730098830    9.80472651209363
H         2.55118253736938    6.21448547563997   10.85675413484546
C         2.36843691686356    7.74383443035655    9.37215011921395
H         2.47353307769695    8.55818644435207   10.07619107248247
C         2.17216003235321    7.99902175571111    8.02559860237254
H         2.11677158167987    9.02127337396402    7.67364436387417
C         2.04167081058476    6.95145992086109    7.13379668588090
H         1.86495482377247    7.17748959316523    6.09021557034607
C         2.09977470640162    2.93822510076417    7.10433227544807
H         1.25849842937316    2.70072762126046    7.76434389133640
H         3.01002004594919    2.94068805440138    7.71922735463890
C         3.03351518057873    4.65012280312082    5.18901892401520
H         3.09863151670850    5.69917268278954    4.88096221940090
H         2.69853979813684    4.07098239063618    4.31721123212017
C         0.89045401751198    1.51634545681176    4.87264088858230
H         0.79421564387564    2.58132598847790    4.62580178235915
C        -0.41517101919067    1.07649304263647    5.52177578669114
H        -1.24216782559368    1.27205509019899    4.84093920766446
H        -0.59417660124084    1.64636042013605    6.43034406069593
H        -0.41282614699089    0.01412759509647    5.75770916481398
C         1.18600225145944    0.75318238031812    3.58341742079912
H         1.21438550359776   -0.32151385695067    3.74894178043707
H         2.15123120176274    1.06060379978562    3.17841730682441
H         0.41826696101904    0.96116558825996    2.83973288709832
C         2.16325461918777    0.03197378155920    7.13690201814237
H         1.17165635103197    0.06792851275856    7.60165028842858
C         2.32707182426306   -1.25730368206147    6.33735172758973
H         3.25219698353822   -1.22030453213815    5.76034057823497
H         1.49757334651297   -1.40723435632468    5.65091377393353
H         2.37213778642878   -2.11743642659238    7.00479267456433
C         3.23525607310334    0.11140547058136    8.22128357509021
H         3.23005030608635   -0.79208024432772    8.82990327287446
H         3.07045111932532    0.96263894829179    8.87731370795345
H         4.22214523593383    0.21184769887085    7.76521983472703
C         5.70089261480150    4.80578502702601    4.04260850682338
H         5.61546454755949    5.89625597483198    4.10199443322715
C         5.10318946403105    4.32554396634645    2.72228982378786
H         5.71892707457847    4.64997668946636    1.88395239725101
H         4.10015620878109    4.71938170581340    2.57859126701004
H         5.05045345249438    3.23478445282828    2.70881703491976
C         7.16437046294621    4.38428221843005    4.13866269652986
H         7.23316937130891    3.29945960954218    4.23203330534471
H         7.64961990221242    4.83400344336341    5.00099877675228
H         7.71099473515392    4.68998634790645    3.24664301347388
C         5.30117117905318    4.88267155200048    7.00118401670777
H         4.41600005399600    4.80693597184436    7.64483384016280
C         6.43869534881392    4.10509726441430    7.65958128905751
H         7.37126380025731    4.21243185654945    7.11021887353102
H         6.19125972585287    3.04414173693008    7.70515846772765
H         6.60078557098532    4.46459862515298    8.67445481024748
C         5.62294269456655    6.36282166158196    6.84257314765554
H         5.77909392920873    6.80590780010995    7.82491215294896
H         4.78867661442635    6.88126329045924    6.37586080557762
H         6.52274460429223    6.52201538067918    6.25154378823424
C         6.08054674855812    0.18999431147976    3.51448983883659
C         6.73170409633116   -0.42274506986490    2.40062011811306
H         6.29829180150345   -0.04195810903662    1.47541788336392
H         6.59879137673615   -1.50378172937444    2.43994663053880
H         7.79638286173801   -0.18898995890794    2.42003378709644

