90
CSD_code = FEMWID | q = 0 | S = 0 | Stoichiometry = C50H33N5OOs | MND = 6
Os       -0.26262873170793   12.25023867499655   13.01136180249698
N         0.22843809973573   12.20731923406284   15.00196671165528
N         1.71952960164607   12.04330770243695   12.51952150596864
N        -0.76077168147221   12.13628851753525   11.02402886127785
N        -2.25035509116620   12.29287465822413   13.50835836575087
N        -0.38287824267101   10.08464362068900   13.08969947681435
O        -0.06859334765650   15.25971696879916   12.89904266811391
C        -0.64100870960452   12.22654834611600   16.04861119109385
C         0.10013029111848   12.23014460159307   17.28016003761004
C         1.41400318140770   12.20479390000691   16.95254655978002
C         1.48890611312785   12.19722712306061   15.51731291683871
C         2.67919790182414   12.13580516948968   14.78361082132044
C         2.76760995376809   12.06271942364862   13.38912530435842
C         3.99869671130646   12.01260781150685   12.64901130194850
C         3.66926916674429   11.95449034644856   11.33677148649507
C         2.23389740110124   11.97253822127360   11.26170926222954
C         1.50030502414728   11.96268947062209   10.07136582104644
C         0.10737624875171   12.04637860909931    9.97996841287295
C        -0.63315698095038   12.03297104002788    8.74805562636273
C        -1.94397462104968   12.13761459539286    9.07167756407334
C        -2.01916601359471   12.19372555237332   10.50591216502015
C        -3.20739710251483   12.28203474841943   11.23955997870451
C        -3.29596175371315   12.30821909797717   12.63648688868894
C        -4.52891011874307   12.28233990361053   13.37471216095128
C        -4.20273716547325   12.26244424987372   14.68908235958144
C        -2.76768134472201   12.28134340617793   14.76700191257342
C        -2.03616404195326   12.25470569734901   15.95853223728011
C         3.94725000430359   12.13350373775441   15.54688923410711
C         4.32149599953361   13.24805785711475   16.29071789241792
C         5.50772490310780   13.24919602917179   17.00156722928151
C         6.33168908335844   12.13605611474383   16.98399962665937
C         5.96480810872204   11.02121842160498   16.24927997409014
C         4.78152901311611   11.02014180217556   15.53315096081608
C         2.26205069124850   11.87740831355416    8.80551510577863
C         2.25396601979251   12.93946781758059    7.90654684144561
C         2.96864718261353   12.86242766517655    6.72510050408811
C         3.69624692207694   11.72301589144820    6.42412984711593
C         3.70886888442225   10.66123625228891    7.31291759261320
C         2.99886244996526   10.73825200399096    8.49746417431560
C        -4.47842907540718   12.32598196415201   10.48287004997559
C        -5.29058736773293   13.45409523625993   10.54459979152460
C        -6.47990686819530   13.50050101092095    9.84064885329611
C        -6.87664898129831   12.41919058636508    9.07141765658908
C        -6.07646913838529   11.29092392603451    9.00778921939937
C        -4.88407510605049   11.24445164020154    9.70719318371183
C        -2.79947104630300   12.26423760846203   17.22606400545580
C        -3.57461250899696   13.36684348408354   17.57177947745549
C        -4.28219815486866   13.38088080962149   18.75989846700830
C        -4.22950431119802   12.29255119275996   19.61485979847832
C        -3.46384328093917   11.18951438732458   19.27642371020339
C        -2.75133799189031   11.17553582537185   18.09101107578414
C        -0.14733406543583   14.11016440160921   12.94472456777885
C         0.54944693865271    9.36525322932339   13.71644505108122
C         0.51211013775091    7.98478437099615   13.80307031567498
C        -0.53949082475844    7.30140369827404   13.21367327798761
C        -1.51041557294791    8.04318854354369   12.56034689045382
C        -1.39227743866039    9.42149425890590   12.52381172959267
H        -0.33214951552649   12.25637148100561   18.26138236332026
H         2.25731918940432   12.18715664016901   17.61523643970659
H         4.49459382184551   10.14850233943272   14.96143117158978
H        -7.10001804833402   14.38362402319658    9.89186664219607
H        -4.26240533959496   10.36108567334527    9.66028315410172
H        -3.42154322516960   10.33675178365124   19.93870988178977
H        -2.15705851793319   10.31310537682730   17.82350256167157
H        -0.60029557559482    6.22466834494940   13.26201277141424
H        -2.35141377301858    7.56399399417884   12.08411841189996
H         4.98036178565342   12.03632036414442   13.08058278021021
H         4.33135780009707   11.92157442500984   10.49355844206223
H        -0.20245685558892   11.95189125817864    7.76909719046028
H        -2.78415951592550   12.17830450914225    8.40626945060763
H        -5.50902548643427   12.26305651487379   12.93907606063192
H        -4.86633655158882   12.22393637481220   15.53095916105945
H         3.67900745682741   14.11632763035377   16.29744432111410
H         5.79132633021134   14.12230202940110   17.57102169583241
H         7.25727232038821   12.13731791233804   17.54058373989447
H         1.69123573512639   13.82948170396743    8.14770660818846
H         2.95883048896786   13.69486810018021    6.03653355199111
H         4.25250858466854   11.66296982725543    5.50026060136693
H         4.27431091179065    9.76975999413829    7.08234030798439
H        -4.97551916432876   14.29703602484535   11.14204829751047
H        -7.80660635616252   12.45533629415456    8.52337016276602
H        -3.60780105507203   14.21687461852960   16.90598459415605
H        -4.78294446525609   12.30404456670467   20.54227518902474
H         1.36354081756069    9.91198504145732   14.17268082930766
H         1.29564777441325    7.45834608922929   14.32538544787247
H        -2.14368413571123   10.01287478802849   12.01863100127339
H        -4.87591631908177   14.24488196699759   19.02115813120592
H        -6.38276261031490   10.44353218235840    8.41137698695286
H         6.60307745080946   10.14946411176835   16.23382241373486
H         3.00493668958414    9.90874524374784    9.19049013201338

