97
CSD_code = FEMXEB | q = 1 | S = 0 | Stoichiometry = C28H64IrP4(1+) | MND = 4
Ir        8.91765818449168    3.94408964538570    3.31638380857974
P        10.44571194071456    2.17284599733325    3.07962150436294
P         7.47201371830640    5.69493987314895    3.92475676340441
C         9.51455292593247    0.59019015450015    2.84828918133120
H         9.17331974952041    0.56839492381268    1.81134233386590
H        10.15290400760997   -0.27847232559905    3.01503525704861
C         8.39374296248704    7.30785770138434    3.86888215427157
H         7.69474622448495    8.13794304636983    3.73745562043911
H         8.88201264251062    7.42790385538916    4.83673131104210
C        11.70478020220354    2.05580618943902    1.69869568376116
H        12.28973913380523    2.97840304742878    1.79156082304688
C        10.97885788010007    2.07254610809849    0.35420971290271
H        11.66153833279953    2.35874971130641   -0.44333645801107
H        10.15189599823379    2.77928669628624    0.36979752216454
H        10.59176565264920    1.08483739213788    0.11381684217307
C        12.67347738354930    0.87911134124327    1.75734958865640
H        13.32872022465930    0.92011983928230    0.88844147491350
H        12.14715188421147   -0.07176764948172    1.72623644029753
H        13.30150195161542    0.91303840058540    2.64310552751351
C        11.48974841700662    1.83818229785629    4.61123603051888
H        12.47377490235047    2.25946203254384    4.37174383129068
C        10.90959215057527    2.62176565415592    5.78600451466014
H        11.61415659399211    2.65271264983913    6.61465823097905
H         9.99146413115185    2.16006988423003    6.14152158460053
H        10.68818939930641    3.64346420962573    5.47938529550779
C        11.68862135305517    0.38016924787720    5.01519325193079
H        12.37992089828817    0.34434637352341    5.85613263076630
H        12.11266353990193   -0.22048542811581    4.21639043904387
H        10.75654538647027   -0.07505413296461    5.34058093134506
C         6.92691743294105    5.68622353291278    5.71630957329032
H         6.29494377141031    4.79881251303665    5.81834878083824
C         8.15710877408489    5.48886389189241    6.60173409556649
H         7.86596055956326    5.12163991740700    7.58334689126871
H         8.69177004107299    6.42429346454169    6.74709258164874
H         8.83897497329572    4.76939744867574    6.14894106011109
C         6.12975174673454    6.90198893042422    6.17943924329556
H         5.95992327231628    6.82377754921626    7.25205930849080
H         5.15761789841416    6.96118797466391    5.69792381375394
H         6.66996709864762    7.82768417706711    5.99692466745960
C         5.89994502490290    6.23215279446557    3.05451078434880
H         5.57705876591986    7.15509047485499    3.54946122703573
C         4.79564459515584    5.19268916132440    3.18463173091598
H         3.90075652894278    5.53171216070356    2.66585458175525
H         4.53189900092781    5.02054454694991    4.22575402570556
H         5.11132154475411    4.25326647502626    2.73896105288013
C         6.16418629155944    6.54924330605256    1.58554627260471
H         5.22532455556487    6.77084578458235    1.08151358617436
H         6.62716835631802    5.70669611781490    1.07768654689382
H         6.80760011780716    7.41830660629428    1.47782126607498
P         7.38774329679337    2.17310472920650    3.55405060562436
P        10.36158458333979    5.69546043910542    2.70888019686999
C         8.31879109869656    0.59030884708247    3.78542334987965
H         8.66007984228093    0.56846862558435    4.82236498734721
H         7.68045222634337   -0.27831290282984    3.61869663815324
C         9.43939580371121    7.30805109790290    2.76490374368262
H        10.13839507675010    8.13812486395267    2.89638447635941
H         8.95120878238404    7.42802705336777    1.79700528907345
C         6.12858594865466    2.05579243279963    4.93500046199552
H         5.54360003379268    2.97841603599078    4.84221065061856
C         6.85454829463793    2.07254605124843    6.27948289746044
H         6.17188365254635    2.35870324696226    7.07706261085780
H         7.68149002165861    2.77931600881738    6.26388984737692
H         7.24168679586111    1.08485339893242    6.51986397452244
C         5.15992010650382    0.87907222594719    4.87640533806031
H         4.50470849348254    0.92006775531070    5.74530918828717
H         5.68627901811552   -0.07180598923857    4.90750306260453
H         4.53189510612402    0.91299199310223    3.99064369397088
C         6.34356961157878    1.83815969777985    2.02250776610215
H         5.35952774044615    2.25947209754959    2.26194455249666
C         6.92378732367459    2.62168829514764    0.84770576844053
H         6.21922119462489    2.65261632522916    0.01903515735014
H         7.84190713758749    2.15998846800542    0.49219711182469
H         7.14519948498537    3.64338399990642    1.15428129871927
C         6.14477697339642    0.38012200980308    1.61858551295428
H         5.45346630724090    0.34430622498392    0.77767986305719
H         5.72075462309578   -0.22053927869595    2.41740614769081
H         7.07685133340881   -0.07511146128197    1.29315763334803
C        10.90651050463910    5.68616243838482    0.91735353094779
H        11.53848605302622    4.79873868921354    0.81536494931368
C         9.67627030270440    5.48881008541729    0.03199928582003
H         9.96738845694122    5.12159084804188   -0.94962608845690
H         9.14165640348451    6.42427076309535   -0.11332878334062
H         8.99440190138199    4.76937393324047    0.48485799820621
C        11.70369276213126    6.90193313411227    0.45435497350616
H        11.87350114286023    6.82369279510953   -0.61824962788549
H        12.67583492321281    6.96113274518816    0.93586463307880
H        11.16348594213677    7.82764030192006    0.63685892690961
C        11.93359231441934    6.23218181659000    3.57934406483418
H        12.25641036520435    7.15507085641657    3.08431574292148
C        13.03784510509201    5.19266605527451    3.44916102752520
H        13.93275397348392    5.53169937516097    3.96789951540104
H        13.30154900947259    5.02051858617128    2.40802702548355
H        12.72218090217715    4.25325056464569    3.89484897300482
C        11.66929861819024    6.54929111406346    5.04828740961308
H        12.60815454992646    6.77092053729523    5.55230083040084
H        11.20630131279922    5.70675456544886    5.55615846538246
H        11.02586742266939    7.41835493899971    5.15594240008233

