97
CSD_code = FEMXIF | q = 1 | S = 0 | Stoichiometry = C28H64IrP4(1+) | MND = 4
Ir        8.78584303582185   11.87678373272177   19.42498876493658
P         8.19674599527002   14.10161191207222   19.02871571968074
P        10.92731496822550   11.60249362768959   18.50581622236893
P         7.35218845500994   12.15044288754000   21.26268207438984
P         8.55039607396343    9.65319546200776   18.75042249147342
C         6.43933995310413   10.04434708782430   16.95312429551107
H         6.11094829971396   10.25960832699554   15.93806824637667
H         6.19733105526696   10.90395554797899   17.57339976300594
H         5.87897174658278    9.18437216397349   17.31170655063566
C         9.25234392899118   15.46011345296984   18.29405052626929
H         9.66938205910799   15.01590709243875   17.38166739859472
C        12.30237254614103   11.56473694322329   19.78031784464317
H        13.17855554211900   11.13370571009826   19.28331804550371
C         7.94145414933257    9.77721755297836   16.97549990793906
H         8.44568329565236   10.68662425635130   16.61710744460515
C         7.57100779957584    8.29452388394197   19.58367363145575
H         6.58238323485038    8.73859925037047   19.75432728748569
C         8.23220884325819   12.18382626874619   22.91842521047134
H         7.52779450466780   12.61503074263645   23.63841627504868
C        11.69394594398276   12.63271204268884   17.14302440469732
H        11.73455378098999   13.64775064417320   17.55701274511046
C         6.63719668476889   13.87305166021325   21.29217171361979
H         5.66802716774749   13.82130222794871   20.79085010019729
H         6.46513877905753   14.18537728292431   22.32550772033744
C         9.45876951218673   13.09029795503707   22.81902442896536
H        10.15807724741658   12.87104639150781   23.62298886366410
H         9.18677764382139   14.13927011622476   22.89651452437148
H         9.96496072930046   12.92830062743719   21.86632477349091
C         8.63827734811409   10.80150366118399   23.41569291366661
H         9.05263386131543   10.88371454631072   24.41908226176653
H         9.40371432284469   10.36914248360806   22.77647850544198
H         7.79014559288696   10.12310613617342   23.46209574407897
C        10.21039793068004    8.87986844730890   18.49819829203687
H        10.59102156014224    8.61972643621501   19.48688018828605
H        10.13248622024798    7.95852063757450   17.91713741203889
C        10.39976880363208   15.72169874426037   19.26786401211782
H        11.21975533355821   16.23186817608833   18.76667332069391
H        10.77082296263537   14.78274719531357   19.67419362796317
H        10.07097943363840   16.35168452947210   20.09106718949148
C         7.53199946121316   14.87399632046806   20.57101827565564
H         8.39190125744645   15.13187179607372   21.19082247148654
H         6.99144355117254   15.79661571730034   20.34920376657210
C        11.13625530923094    9.88132192800716   17.81813876059157
H        10.89773088629353    9.93562101529858   16.75350021109442
H        12.17913002061940    9.56792466446738   17.91369869637395
C         6.63457773706578   13.97934566797089   17.98895232617480
H         6.15906064455468   13.07050717120465   18.38597977211804
C        13.09949611045613   12.22108306337063   16.71510878727101
H        13.43169250394064   12.87630877327874   15.91155463999415
H        13.11630351178083   11.20163557728410   16.33789906538794
H        13.81540776884507   12.30817927243748   17.52740042317001
C         4.91090607564397   11.09882711306916   20.44076837350168
H         4.14749978223902   10.33285163804836   20.56158653844773
H         5.47645179419055   10.87916225168594   19.53719750764203
H         4.40270128618408   12.05221494854838   20.31199333296241
C        11.89070612896469   10.65638302871791   20.93863244482364
H        12.48589095732680   10.87582727055158   21.82238728311458
H        12.03789101679632    9.60792874176767   20.69491550817107
H        10.83909242076963   10.81616079335668   21.18122883937306
C         8.56888687470752   16.77182355830681   17.92328077538767
H         9.33157762082904   17.49674823497084   17.64209214288216
H         8.01427798627884   17.18571190806689   18.76166724982567
H         7.90159748061829   16.65584836576695   17.07426630774775
C         5.83673338827952   11.12242437114410   21.65398570664014
H         6.22475833897278   10.10647717376947   21.79761332651400
C        12.67981770012769   12.94591611064135   20.30266107226039
H        13.54188662519877   12.86193374439824   20.96221439622899
H        11.86492761854283   13.37874140838182   20.87718596979192
H        12.94468534069365   13.62478136332595   19.49598960268848
C         5.06432666239907   11.53356319017224   22.90398844743426
H         4.20062395212837   10.88053431188674   23.01783580591129
H         4.69828014814796   12.55422225928355   22.82589528188614
H         5.66589186643842   11.44272032400746   23.80387104723545
C         7.38702263827610    6.98264018437679   18.82853060490730
H         6.92039272292871    6.25793207657877   19.49436655249320
H         8.33926034303944    6.56863222370757   18.50659633382240
H         6.73657444469864    7.09832770419154   17.96650287989549
C         6.99413617900260   13.71126820467264   16.53050525759185
H         6.09560446853437   13.49589220854202   15.95536863839060
H         7.65537781629071   12.85149059642679   16.45440467677800
H         7.48342464794901   14.57085975230322   16.07898492611584
C         8.30165431504403    8.65296569742083   16.00734825418505
H         7.91423437922429    8.91064785015480   15.02227340852275
H         7.86284301444671    7.70416703221914   16.29478755748797
H         9.37550060665377    8.52153005667971   15.90773904831658
C         8.22029735066937    8.03339026212610   20.94142903578841
H         7.52691956832633    7.52302818305472   21.60668969588258
H         8.51821607838884    8.97259277723280   21.40356551593038
H         9.10039809906849    7.40378934449107   20.83343203669302
C         5.60767412290375   15.10453073736474   18.09084767573715
H         4.75137184970424   14.84537056646368   17.46919864626863
H         5.99676817494800   16.05188634482552   17.73516541350600
H         5.24158784635511   15.23962783656042   19.10476903053684
C        10.75765966073843   12.65957900737352   15.93788848862628
H        11.06920251635095   13.42785794169578   15.23306011475334
H         9.73939999963436   12.87769961113577   16.25434310318341
H        10.76355298309017   11.70779487919010   15.41075850576972

