99
CSD_code = FEMXUR | q = 0 | S = 0 | Stoichiometry = C36H54BF3MoN4 | MND = 4
Mo        4.87870923388703    7.01467906316852   11.46946802467141
F         4.06244557005013    3.38751695881770   10.24064836278893
N         6.60158607044382    6.61819675541922   12.18416384983666
B         3.37177926581762    4.18883485058434   11.15129490355120
F         3.32574458307613    3.54832964572907   12.39077053922946
N         4.96345775646703    7.77288268292635    9.72201454698571
F         2.07216453090624    4.40278468271880   10.69026182767805
N         3.82260232823652    8.04666453568782   12.67464715564422
N         4.07778257182929    5.51102374599340   11.29551307440295
C         7.10713928815181    7.64496410279753   13.00872348328476
C         6.88404582246911    7.62890380616560   14.39118604640701
H         6.30146597636261    6.82358419155617   14.81709300970875
C         7.40189948268039    8.61595736769392   15.21237579954042
C         8.16105825924253    9.63696686889389   14.64546708393723
H         8.57337976898783   10.40362462269273   15.28670202831740
C         8.40220396517822    9.67573177906138   13.28169471027308
C         7.87503184192339    8.67539833420144   12.47164233321540
H         8.09251513635202    8.68171647574883   11.41311576251853
C         7.31884935200701    5.32957124600392   12.24451028158246
C         6.64818196352658    4.38447084912088   13.25085458866217
H         5.59502976191638    4.26981835434758   12.99716140155849
H         6.73993201631553    4.75755012451775   14.26829691440719
H         7.11850260225933    3.40542456210275   13.20746409547856
C         8.79431897230678    5.53200136305734   12.62115490968475
H         9.27180520065278    6.23054893323437   11.93573923030087
H         9.31482144053464    4.57957698847860   12.56284084293790
H         8.89710494306777    5.91744551997277   13.63341024907870
C         6.08450332754594    8.60625451182762    9.52244120566822
C         7.28913971908258    8.07847738883097    9.04354231390032
H         7.35158838457244    7.01687468136215    8.84516241040152
C         8.38814571283238    8.89104407284518    8.81734984545460
C         8.28028167226275   10.25650829952904    9.06523900190415
H         9.13376172720741   10.89443490320010    8.88381848770091
C         7.09609685732067   10.80832750341903    9.52845647663066
C         6.00415938959632    9.97805955581454    9.75339080251086
H         5.06921535658221   10.40653194724673   10.08509672840619
C         4.21784895995239    7.39936087062955    8.50315108383798
C         4.39118911286890    8.44854201194588    7.39452740511947
H         5.42198705047456    8.49614728504720    7.04940358584482
H         4.09987708436769    9.43559386635431    7.74986284646709
H         3.75940421341599    8.18524564676411    6.55013777612519
C         4.68303512632109    6.02821647931563    7.99424731928366
H         4.56307019710198    5.28607308965511    8.78229144252387
H         5.72309295752171    6.05730575332554    7.67675804197988
H         4.07821597126278    5.72476906425798    7.14350055855783
C         3.88518222710710    9.43500915771901   12.43099245895841
C         4.81048885861491   10.23683234875144   13.09658451738924
H         5.48768856189269    9.78679834100235   13.80854545948059
C         4.84873219665800   11.61049581413877   12.88778274983824
C         3.94628006895895   12.18478989626508   12.00526731483577
H         3.96162245466548   13.25371081727712   11.84350973393887
C         3.00815765024538   11.40997263272604   11.32928597746944
C         2.98390562665580   10.04239091145752   11.54947349669896
H         2.25588357608228    9.42447265012583   11.04093946351014
C         2.75544978560166    7.60807494801131   13.59601365274930
C         3.27381979150302    6.40144199937079   14.38557342471336
H         3.54974553497717    5.59888162195672   13.70226760212898
H         2.49627349893602    6.03148980102764   15.04958430007727
H         4.13362661956028    6.68748377668558   14.98979480947722
C         2.38240167008610    8.71857910264581   14.58974173335731
H         1.93221546939231    9.57043592428390   14.08402943214377
H         3.26300758054612    9.06290221883256   15.12956561333451
H         1.66638584479642    8.32997974397928   15.30923637359316
C         7.25456564384606    4.68540037124093   10.85520534369310
H         6.21583975685039    4.53958267131560   10.55985655860425
H         7.74322727196078    3.71418022125876   10.87383645276997
H         7.76439556777476    5.31145861486395   10.12408685167854
C         7.14921150742941    8.60149469117644   16.68991711341734
H         6.59885495720390    7.71173523365039   16.98460710633576
H         6.57328440194303    9.47876882744323   16.98423622139693
H         8.09096056229043    8.62601087452118   17.23600998724471
C         9.23303513683623   10.76177154960918   12.66818490110214
H         9.53701775031476   11.49290383240666   13.41337309939334
H         8.67201668142840   11.26541158396512   11.88355288487515
H        10.12842113768280   10.33786495206779   12.21518396198121
C         2.73036436432423    7.31140539647214    8.86197720702643
H         2.58147841087304    6.58351221003606    9.65930608448658
H         2.15841819297191    6.98909629210540    7.99518266107984
H         2.35891012536356    8.28655794654925    9.17447078651186
C         9.68164349853480    8.31898704794798    8.32032880210040
H         9.58808206707364    7.25513703656245    8.11813726330747
H        10.46870731956645    8.46330442541091    9.06031525197251
H         9.99215905420648    8.82178198277444    7.40570765843569
C         6.96655031776719   12.28612110416426    9.74502750619887
H         7.94018516336384   12.75092487207710    9.88490084364380
H         6.34008282373749   12.49198006713057   10.60984042576884
H         6.49787600085172   12.74592899100886    8.87411044635530
C         1.51157777231641    7.18085059490931   12.80486938859106
H         1.78338716348421    6.40836392704616   12.08639402600872
H         1.06632177197794    8.02484090640159   12.28256252973125
H         0.76621110858740    6.77120329252498   13.48176806824573
C         5.82527444942175   12.45735577397178   13.64674551046688
H         6.74938832154822   11.91293754484680   13.82160443882869
H         5.40330287072042   12.72599047279190   14.61574375712957
H         6.04631819329116   13.37853905462897   13.11217751465357
C         2.04944534668431   12.05470581889729   10.37406939360391
H         1.34472822566764   11.32876314027719    9.97678380056944
H         2.58954062690913   12.50544224194346    9.54155335652102
H         1.49137889397530   12.84560938768397   10.87279229457116

