108
CSD_code = FEMYAY | q = 1 | S = 0 | Stoichiometry = C39H63MoN4Si(1+) | MND = 4
Mo       10.06088269115901   14.77582885345490   18.33978216001668
N         8.88770352198778   13.66292522696166   17.34235717792855
Si       12.07666022687380   12.76005731811260   20.35561040934930
N        11.07084987567012   13.76586483675369   19.34975575114929
C         7.62039891167399   14.25553638747093   17.09547048102362
C         6.59849610322750   14.14413152029086   18.04266627643066
H         6.79690866889046   13.63004033730662   18.97349227172538
C         5.33716321921813   14.66715974757200   17.80057506404495
C         5.09626080429488   15.30648802891779   16.58770780883665
H         4.11221738259363   15.70649328310919   16.39142737250108
C         6.09092470975826   15.42694939065011   15.62955227335224
C         7.35160635206273   14.89962719406659   15.89165100267421
H         8.11829094217809   14.96497721909788   15.13505056051645
C         8.94781283449591   12.22057672451975   17.03175705598538
C        10.40755419369661   11.82489053703219   16.78045477337893
H        10.76702391710631   12.26309336246312   15.85171575991560
H        10.48365953481864   10.74405578224702   16.68883205235315
H        11.03641052936253   12.15330259155956   17.60767468052292
C         8.41155862230731   11.42224501932743   18.23099295719129
H         7.33416296857668   11.53661977503507   18.32121057823758
H         8.89523346759244   11.77195150385785   19.14410328131823
H         8.62305406249703   10.36419750151765   18.10136047635439
C        12.54890773786412   13.69451855577035   21.95298887241609
H        13.24519460385244   13.09439228032218   22.52916699450899
H        11.68702641668445   13.88486072469010   22.58433867532508
H        13.03343129092844   14.64540135235794   21.75197061802782
C         8.13168203328152   11.87449884820597   15.77886316502972
H         8.46655988684590   12.46246985601440   14.92706130598017
H         7.07090024599539   12.05870492993710   15.93150087234844
H         8.26510706493247   10.82153299902066   15.54544116473965
C         4.24204268387034   14.53842086511060   18.81373797612386
H         3.73823158509320   15.49231402154929   18.95855012305342
H         4.62518737736356   14.19316363656429   19.77084695688537
H         3.49683515676967   13.82343695752441   18.46632294203736
C         5.82091490321080   16.08023264854842   14.30984258900590
H         4.89190266972208   16.64398737312154   14.33170821221169
H         5.73538221609499   15.31992313967211   13.53377052079366
H         6.63836270406262   16.74318461432397   14.03644451404864
N         9.06345134082910   15.94902763684792   19.45265960121471
N        11.17377702449795   15.77323041171609   17.16657657551342
C         8.81657247914709   17.21633175151847   18.86004527308591
C        10.58115988524354   16.02011231382611   15.89927547623034
C         9.76376952992491   18.23822922244521   18.97144731770500
C        10.69257309500099   15.07291627989646   14.87737346512551
H        10.69458375570537   18.03984000649081   19.48556862370199
H        11.20666498676499   14.14209271294411   15.07578759004134
C         9.52167533303252   19.49956533485576   18.44841366042296
C        10.16955198866707   15.31500882580564   13.61604166230021
C         8.30883100489150   19.74045899537680   17.80905088766087
C         9.53022772041741   16.52787684978908   13.37513406495451
H         8.11254132154916   20.72450030490130   17.40904303651654
H         9.13023398875128   16.72415343609817   12.39108378704470
C         7.35067173713282   18.74578715440112   17.68859049593462
C         9.40975559646260   17.48602586335880   14.36979824402460
C         7.61275679230808   17.48511531494234   18.21593436989835
C         9.93706748090649   17.22392664186593   15.63048425131071
H         6.85616519906470   16.71842047625946   18.15056608417872
H         9.87172496190570   17.98053463462201   16.39716439798183
C         8.75285236117979   15.88892006764535   20.89500841237635
C        12.61613203764807   16.08380053752659   17.22667767626109
C         8.50151121308455   14.42918373845105   21.29069269969667
C        13.01180107241906   16.33522700851929   18.68640216538764
H         7.57274428758258   14.06975108942937   20.85251827455826
H        12.57362773446255   17.26401878113108   19.04577593777665
H         8.40992342130466   14.35307420956952   22.37152958345592
H        14.09263940197728   16.42680146024983   18.76252226709703
H         9.32869721655515   13.80029928293149   20.96224868845615
H        12.68333711681444   15.50807976229961   19.31532669312825
C         9.95210627804043   16.42514601866484   21.69332875915993
C        13.41444049866558   14.88449694077970   16.69054184680317
H        10.04235761532884   17.50253819355168   21.57894945956894
H        13.30007664427934   14.79418322426116   15.61315337892468
H        10.86520129785240   15.94143983502676   21.34362618806989
H        13.06470267869921   13.97144156998887   17.17429524984577
H         9.82246562573267   16.21366268853633   22.75137625799678
H        14.47248933797164   15.01411903168259   16.90203750503311
C        13.67405780771326   12.28776591646514   19.42120418617941
C        11.14219564733812   11.16268864195714   20.82787773008373
H        14.25018123988881   11.59144309658651   20.02134210985207
H        11.74232206699060   10.58651239850950   21.52416119216135
H        14.30545153125780   13.14962533244575   19.23090416430665
H        10.95183617317645   10.53133097305306   19.96600945826927
H        13.47305800624105   11.80326844124605   18.47030407456230
H        10.19132287662869   11.36371590679499   21.31241022132496
C         7.49998236355590   16.70508718561172   21.24108416390685
C        12.96225281586243   17.33660576570171   16.41043305658834
H         6.64817235440301   16.37023615174038   20.65311048571605
H        12.37427309443911   18.18844916948428   16.74518828574550
H         7.65264459123243   17.76586723181192   21.05688773097767
H        12.77809336171297   17.18385993321947   15.34965909798031
H         7.26655560513689   16.57165923088379   22.29404728261380
H        14.01521395115766   17.57003396672721   16.54387975699969
C        10.53479896895362   20.59466084493829   18.57731558714456
C        10.29827971278171   14.30184557605443   12.52091481273245
H        10.67800720622601   21.10014736283027   17.62416954804062
H         9.34426432546565   14.15677540289461   12.01736669803869
H        11.49250422612428   20.21124788248033   18.92037648240481
H        10.64389713098968   13.34483075012768   12.90402125287553
H        10.18848410755337   21.33855169911711   19.29409904305766
H        11.01298171708978   14.64945405967511   11.77550411176334
C         6.03095424302776   19.01578977421753   17.03531274979727
C         8.75645687101847   18.80572593870900   14.09979216715960
H         6.05277180239299   19.94486676427439   16.47166354391897
H         8.19281713905650   18.78390071066380   13.17070709690929
H         5.25484690667216   19.10118110573308   17.79560421927872
H         9.51674968124322   19.58183210752434   14.01441318483512
H         5.75761953101243   18.19840625900945   16.37225508796448
H         8.09338976524032   19.07904186724755   14.91717578102568

