89
CSD_code = FEMZIJ | q = 0 | S = 0 | Stoichiometry = C46H24F10N8Zn | MND = 4
C        17.36162872362205   13.89398244187769    2.71958765194422
H        18.17588181948221   14.54029985903178    2.45919413813891
C        17.29600219527621   12.52106027232160    2.75632356257560
H        18.09617220594328   11.84209233664486    2.53925290488263
C        15.99127403818242   12.17895160589089    3.12458144024534
H        15.60314082314231   11.18985047343945    3.26093343827929
C        15.28855295186481   13.36099292691205    3.31868821834086
C        13.93905695570338   13.53844880458073    3.74239034071504
C        12.90383069489847   12.57220349828810    3.67335959277869
H        13.00601042773195   11.57661655522208    3.29151609085341
C        11.77357518267241   13.17214213817276    4.15492996867279
H        10.79947612497249   12.73424021641167    4.25893556796051
C        12.13786952433327   14.48998618843065    4.54740199586235
C        11.30939782064398   15.43283540713734    5.16437324248964
C        11.70321180234994   16.62528979127532    5.78019261631554
C        10.85231510275105   17.69591555921617    6.17138094353182
H         9.78448157714667   17.71759451608525    6.06767784541934
C        11.65777588233787   18.69125656929817    6.65091115445951
H        11.36212862550146   19.64799748793276    7.03134122780290
C        12.98853091131493   18.20725467866274    6.58205156817697
C        14.16105480211894   18.90018411241174    7.00311783915183
C        14.34485231578348   20.26364299469831    7.19228585165750
H        13.60022224886782   21.02123806997241    7.05402986015629
C        15.67967907154521   20.46111693659021    7.55867930447201
H        16.15007020819541   21.40001349268675    7.77203751642846
C        16.27780166280208   19.22375318175249    7.59917029921006
H        17.28037363184280   18.94895579918827    7.85967117648611
C         9.86005912509982   15.13762588700560    5.16568819537534
C         9.14359647363676   15.02474860228641    3.97641224667889
C         7.78063103888680   14.75139234593741    3.96537046834683
C         7.10306460100325   14.57791817486302    5.16903620000794
C         7.79744972761436   14.68278993486132    6.37107784341815
C         9.15905069820689   14.96252985664307    6.35668506221325
F         9.77287771195927   15.21287465240882    2.81164044052282
F         7.12020474174137   14.65911613344396    2.80974423336652
F         5.79724118115956   14.31302182700601    5.17067645466894
F         7.15594773030179   14.51077997421718    7.52823374535854
F         9.81469339336991   15.03515913941736    7.51986205551081
N        16.15369812449433   14.39034616309998    3.06581026676820
H        15.91440668546569   15.36922200130859    3.07781319697689
N        13.47296996446053   14.68651044475080    4.26809457914826
N        13.00881441390390   16.96744820906771    6.05840526519736
N        15.36042126961777   18.29274224771558    7.25705163455392
H        15.52330122704280   17.29828101002563    7.24886642839843
Zn       14.48247982145826   16.07848256382922    5.16495543837802
C        11.60334788330570   18.26310461456074    2.71968197590882
H        10.78911422783857   17.61682001017448    2.45915803769102
C        11.66897909838937   19.63599578558040    2.75655118905315
H        10.86881624054833   20.31496113616092    2.53951992565265
C        12.97364326821583   19.97808337209740    3.12499744352722
H        13.36173291226460   20.96716534434061    3.26155351988676
C        13.67642444193449   18.79603204839737    3.31885875950693
C        15.02594360046205   18.61853419462973    3.74246919653061
C        16.06118334680338   19.58476164879243    3.67340490760455
H        15.95899672583455   20.58035902287183    3.29158894717367
C        17.19145193282220   18.98479053235204    4.15490296299100
H        18.16556696830311   19.42266775961032    4.25884886576923
C        16.82715288828905   17.66694679968369    4.54736875535376
C        17.65561607439554   16.72409366420026    5.16435000708095
C        17.26179025417975   15.53165542478922    5.78018973570176
C        18.11268811028258   14.46103338707054    6.17139229955367
H        19.18052144468540   14.43935430161421    6.06768524789972
C        17.30722766102102   13.46570112945634    6.65093693196163
H        17.60287127369649   12.50896626291215    7.03138436799631
C        15.97647217420731   13.94970586670800    6.58207646587075
C        14.80395787371500   13.25678152941701    7.00317601113051
C        14.62017867866685   11.89332840311780    7.19240201624372
H        15.36481385146241   11.13573487972087    7.05416761866797
C        13.28535953682105   11.69585442184187    7.55882376225980
H        12.81498387210191   10.75696044914000    7.77222584229357
C        12.68722494073107   12.93321349557856    7.59928171275414
H        11.68465506121929   13.20801197082620    7.85979307770058
C        19.10495115185829   17.01932615818341    5.16569471723896
C        19.82145251090012   17.13220088904379    3.97644208411982
C        21.18440185921120   17.40564066491290    3.96543998410251
C        21.86191102834961   17.57921475124917    5.16912303251471
C        21.16748730426486   17.47434241386084    6.37114292981081
C        19.80590632715010   17.19450696404589    6.35671043860916
F        19.19222438154118   16.94400454798301    2.81165341111400
F        21.84486460598898   17.49791139566260    2.80983407273248
F        23.16771444818808   17.84421125287129    5.17080177905899
F        21.80893092352470   17.64645085278095    7.52831598591656
F        19.15022835931138   17.12187420022077    7.51986752757928
N        12.81130555997373   17.76670791790886    3.06578542686212
H        13.05061096804993   16.78783225413864    3.07763198070718
N        15.49203971680888   17.47045065672181    4.26811638694489
N        15.95618737963635   15.18950174646582    6.05840818423146
N        13.60458864395381   13.86422009210645    7.25710430668009
H        13.44170522863405   14.85868070412903    7.24889905609522

