89
CSD_code = FENCAE | q = 1 | S = 0 | Stoichiometry = C39H38ClN8P2Ru(1+) | MND = 6
Ru        0.53735510862751    6.20145384615602    9.89742489034106
Cl       -1.20940799713971    5.45139467112257    8.51126451012104
P         1.86087085723290    6.77257555653559    8.08535765511587
P         1.33444095567241    4.11509702731833   10.16215984336956
C         1.79541637198530    6.52267143586246    6.28101349305983
C         2.70560734001566    7.12417060276253    5.41796271872610
H         3.49196459449985    7.75567724419214    5.80703249713729
C         2.60344197649669    6.91274770101998    4.05391205499835
H         3.31235893772787    7.38006416851486    3.38622261438698
C         1.59702225984388    6.10757453153264    3.54501803114601
H         1.52294417516799    5.94671515916443    2.48014141476645
C         0.68596344061428    5.51394576305578    4.40349371757618
H        -0.10375916508126    4.89202632961933    4.00963212156381
C         0.78417299956450    5.71699351526488    5.76862275253213
H         0.06968108336552    5.27017437863682    6.44648391972291
C         3.40472172267377    7.68009480157484    8.43276534490748
C         4.66273308854059    7.22484352955767    8.05171960766395
H         4.75762210058172    6.32119325628677    7.47460042158195
C         5.80254046170663    7.92644648431421    8.40493147859278
H         6.77013928113427    7.56405250849798    8.09080546790569
C         5.70799315871669    9.08553597409657    9.15551903731557
H         6.59812080182078    9.63101917856445    9.42856496322363
C         4.46200920975486    9.53998499088697    9.55494566125772
H         4.37777252140390   10.44148747640883   10.14383953329678
C         3.32336481294552    8.84244818152389    9.19931107562948
H         2.35700504505433    9.20690364413526    9.52401977377921
C         0.68840847555176    8.22930107824137    8.12684146447353
N        -0.07117239582148    8.11684503711012    9.21704416443777
C        -1.03619689560339    9.06475495935319    9.14517670653312
H        -1.80191089571134    9.17991760916352    9.88925530894883
C        -0.85280726982162    9.77444892001471    7.99166354073131
H        -1.40471764194515   10.59577769730406    7.58355125192169
N         0.23117421802606    9.24150588789976    7.36084902735786
C         0.76590089954105    9.68560719427978    6.10401987106715
H         1.85214181319611    9.75430383619858    6.16591305787620
H         0.35630953003056   10.66573811837001    5.86569008870315
H         0.50293011355655    8.98620961979496    5.30770780814397
C         0.22181243819973    2.68775796507635    9.97626824713151
C        -0.21770588995816    1.92106839257520   11.05073038914731
H         0.16873424552115    2.10035967399409   12.04426783232888
C        -1.14635129910039    0.91571682653002   10.84379437475510
H        -1.48364761451779    0.32048647668192   11.67904850447751
C        -1.64721657936227    0.67816437168325    9.57438087370725
H        -2.37880876883897   -0.10034202978652    9.42126428768641
C        -1.21308262468540    1.44249105404825    8.50238436517486
H        -1.60801574430296    1.26329017623998    7.51405142957178
C        -0.28296870683320    2.44526773588956    8.69844208790064
H         0.04424451519322    3.05915867140860    7.87100287258127
C         2.29472495507153    3.76586834221071   11.67111092803056
C         3.63506706982332    3.39735225709403   11.68196645492500
H         4.16852113702772    3.25368166026704   10.75295180811318
C         4.29887044199127    3.23299719619672   12.88547440597472
H         5.33885671663218    2.94335767727690   12.88721703493453
C         3.63708385515805    3.44202221839810   14.08351885435302
H         4.15876750149685    3.31100019293461   15.01888119721948
C         2.30596945799048    3.82900410549686   14.08077884932370
H         1.79015149900533    4.00089075828257   15.01388487139674
C         1.64196774629556    3.99785811744204   12.88113117213114
H         0.60507135940382    4.31400573087245   12.86801662571363
C         2.50540601682850    3.79416041856338    8.81672010514150
N         2.88813169858553    4.75911246506308    7.99051879042359
C         3.62229824654567    4.17243252263816    7.01441396985246
H         4.02575793960008    4.72180798760141    6.18751204835794
C         3.69944266771131    2.83329905106594    7.26079011586645
H         4.18799568766807    2.04659051566711    6.72296042991131
N         2.99477980096193    2.60393886068625    8.40123652643015
C         2.81299940453161    1.31198147909316    9.00396926807410
H         3.73764244071207    0.74035946500088    8.92055591123430
H         2.01312420454572    0.76504336629050    8.49979581412753
H         2.55199839303061    1.42368777393861   10.05495506569840
C         0.13768436110782    8.02538585813193   12.51190068608110
H        -0.08582370680927    8.69546808855083   11.66462173614589
H         0.03032563554426    8.57030542779057   13.45296452917374
N         1.49164929630651    7.55835293847462   12.38215965344636
N         1.88381759598522    6.92284815976820   11.27022813091004
C         3.17190082140252    6.66014588438290   11.41993730833717
H         3.72287599432056    6.15185348697606   10.65154971509176
C         3.62404793697317    7.13817462780491   12.65399143306469
H         4.61578599469798    7.07393841896077   13.04850324536072
C         2.52340384180895    7.70422935449801   13.24594170524164
H         2.40555575779958    8.19518826860030   14.19011041158108
N        -0.78683915114976    6.92334023398676   12.49395767397778
N        -0.81965067500932    6.08708456835693   11.44887912176956
C        -1.78531895918900    5.21654778795711   11.68182358446229
H        -2.00614798172449    4.43767518659524   10.97518224711436
C        -2.39687912704091    5.49713603467917   12.91047743232119
H        -3.20985539608076    4.96925248598838   13.36247985449447
C        -1.73212918321106    6.59134029437123   13.40434339753691
H        -1.86528036154846    7.14795950337210   14.30947573225660

