77
CSD_code = FENCUX | q = 0 | S = 0 | Stoichiometry = C41H32NNiOP | MND = 4
Ni       13.26887468022641    4.27923110286147    9.94897160064227
P        15.37737852421292    3.82779756399213    9.92372316607805
N        11.36392390201561    4.74121750187487   10.21916212169698
O        12.90146083102748    2.43537881739943   10.26433553948910
C        15.76892721568147    2.21788834585012   10.68516650004820
C        15.25998908446831    1.98567775525262   11.96080453687645
H        14.66770280611677    2.75579584512920   12.43993904111265
C        15.48291932268973    0.77821492469907   12.59314681945284
H        15.07763114139461    0.60006361789448   13.57868389073110
C        16.21373870298303   -0.21056615696219   11.95249230437178
H        16.38193669340632   -1.15956962949466   12.44037245344965
C        16.71642620922693    0.01366888848045   10.68222971182017
H        17.27851173150390   -0.76034692940387   10.17965522214668
C        16.49420224291474    1.22296173262331   10.04481950789571
H        16.87748356580030    1.38585601110717    9.04765256869927
C        16.66611357452622    4.91437080718383   10.62034624629679
C        17.30511804320152    4.63085534646146   11.82182706053243
H        17.07770220876831    3.71810572194695   12.35388938099652
C        18.23915844654918    5.51191691609999   12.33911378067226
H        18.73231237526871    5.28156839955299   13.27240537193540
C        18.53929759316016    6.68418902965288   11.66721062043577
H        19.26522009712946    7.37159896547024   12.07571690190903
C        17.90434324505717    6.97307276151904   10.46953248292713
H        18.13311407632818    7.88685401226667    9.94134381941260
C        16.97247192720581    6.09636899100645    9.94925143339061
H        16.47309285465884    6.32467444042169    9.01879101963207
C        15.91220157235615    3.62393998649721    8.19854893225863
C        17.23466354917088    3.70115305823197    7.77683509750876
H        18.01842655495230    3.91058149655469    8.49154401732341
C        17.53946945941884    3.51420223464841    6.43996747630737
H        18.56656982137850    3.57510862719576    6.11034454417788
C        16.53397607958074    3.24962760532719    5.52338295651228
H        16.78021135617573    3.10847328351088    4.48120976420205
C        15.21485706255275    3.16777376744733    5.94082056311662
H        14.43262339918853    2.96139084196758    5.22501192846430
C        14.90710931514527    3.35497331007012    7.27516069745890
H        13.88129832024327    3.29655933375481    7.63214818469868
C        13.75499022945436    6.05728012928608    9.66055008393466
C        13.96783423518643    6.61436554069971    8.40028306664462
H        13.98187233812660    5.98964908396982    7.51537593540723
C        14.15590429657735    7.97974424337568    8.25336219371383
H        14.29869196809551    8.39388220787421    7.26472604455212
C        14.16681175208067    8.80716807953536    9.36133536523880
H        14.31121677539957    9.87148538182164    9.24381672241453
C        14.00409884121122    8.26183747128032   10.62246359531365
H        14.02844880655029    8.89907152443095   11.49550816991504
C        13.80858137186631    6.89947525065043   10.77101788614753
H        13.68518331480780    6.49171730796573   11.76973314357589
C        11.26679496587860    5.48842551173499    7.47179725804161
H        11.59176240334001    4.49262429566901    7.75575539476438
C        11.24084321254611    5.86449921733648    6.15817403793606
H        11.53858157807759    5.17097002815227    5.38483823038006
C        10.82961787085304    7.15761399743850    5.80274759044015
H        10.81778866836594    7.44251662648209    4.76045950955723
C        10.44756900049574    8.04891149075675    6.76580263827499
H        10.12946138187013    9.04602674654538    6.49567728381319
C        10.45431842802468    7.69039092004552    8.12978135859938
C        10.87992187342042    6.38691116882718    8.48620749473466
C        10.89654813223162    6.02050263320663    9.86088911498028
C        10.46129201113016    6.91044674582575   10.81377234790163
H        10.47860625814890    6.62584061740853   11.85638473415294
C        10.04459919299156    8.19702091368415   10.45084197291806
H         9.72530299391863    8.88110845256390   11.22353141329540
C        10.04578591435327    8.58495561084265    9.14098699139569
H         9.73015556600003    9.57922426598133    8.86013111977455
C        10.51830283808165    3.95667749143431   10.81532899419491
H         9.51669436617504    4.35574975209353   11.00805952065517
C        10.71252992286855    2.60603346856398   11.19832240210781
C         9.67604072237362    1.93249750090633   11.87234909265944
H         8.77913970853942    2.48620149993811   12.11778846426996
C         9.78742004896290    0.61428262639128   12.21962951475712
H         8.98673460991579    0.11379188376656   12.74289588977368
C        10.95195147543853   -0.09031021275047   11.88449714591187
H        11.03554817698890   -1.13374445647173   12.15575997461816
C        11.97723473760753    0.52330739078197   11.22304606847788
H        12.87980297657387   -0.01174712160088   10.96376372377065
C        11.91275944877360    1.89786638380362   10.86345124437317

