131
CSD_code = FENDEJ | q = 1 | S = 0 | Stoichiometry = C54H72CuN4(1+) | MND = 2
Cu       -0.66321882801758    4.34143403999120    4.15882226247799
N        -0.17385118893614    5.37947775097392    1.38874491812030
C        -0.03287949175854    4.35565219386457    2.25995375638867
N         0.48984492222692    3.35036384487846    1.52307069419403
C         0.23568333380293    5.01635574406139    0.13590971837343
H         0.17961996547261    5.68609724721382   -0.69680511743876
C         0.65893495322701    3.73462356421999    0.22144672025130
H         1.05647505291531    3.07132934499625   -0.51782305194271
C        -0.62793017907273    6.69788914378517    1.67901700993702
C         0.29318054532243    7.63291165852486    2.16282679058512
C        -0.15023895571257    8.93294935065207    2.35932920743118
H         0.53060783329244    9.68197581467421    2.72701590928171
C        -1.45426480286597    9.28842237731972    2.06802141601061
H        -1.77648252125307   10.30831706927920    2.21222349496034
C        -2.34589142959753    8.34900671235620    1.58681931187205
H        -3.35699885023740    8.64395624723941    1.35415132698279
C        -1.95029915867383    7.03191182376962    1.38758613380327
C        -2.92886472227242    6.00938873267340    0.85857232404388
H        -2.43431325384616    5.03443201290148    0.79713275382279
C        -3.39808552836531    6.39061284476262   -0.54719025857534
H        -4.05384167191363    5.61919048448054   -0.94327023787496
H        -2.55034527564517    6.50026076825252   -1.22001333084493
H        -3.94500233653777    7.32912291411738   -0.53275107296065
C        -4.11832245463054    5.85972750630613    1.80885959458393
H        -3.77130471864781    5.61054468463696    2.80949643434138
H        -4.77456978993589    5.06589894889583    1.46008217944436
H        -4.69435738780537    6.77913328358229    1.86088084390954
C         1.73703584514859    7.24563887521735    2.39043607100004
H         1.76960959943855    6.18947068057110    2.68420347294258
C         2.52725466225443    7.41950038424616    1.08758333256780
H         2.13873018328767    6.78511196072926    0.29489719992149
H         3.57115163795738    7.16197007674445    1.24980882701663
H         2.47545168606768    8.45375176510006    0.75570022395686
C         2.40468422194700    8.05126121808908    3.50230273381342
H         3.36510282005248    7.60386949877875    3.74750581938885
H         1.78511774232398    8.05884688165195    4.39492878553489
H         2.58798714769578    9.07561058990720    3.18968652364127
C         0.87138960193548    2.05445011725768    1.97492352722441
C         2.18426181548604    1.85497821472651    2.40783256783287
C         2.55539472091971    0.56930004207110    2.77792375914434
H         3.56606077208995    0.37731580357189    3.10046594043394
C         1.64594149082672   -0.47040823069873    2.73432783618481
H         1.95197635275838   -1.46283953145835    3.02900253554399
C         0.35261397698876   -0.25071827430584    2.29973847025123
H        -0.34370455315155   -1.07277923689880    2.26324625683481
C        -0.05236626403445    1.01182711587213    1.88859336925901
C        -1.44928935101983    1.24351939391498    1.36327105711723
H        -1.49706005051320    2.23066587794669    0.89210524321307
C        -2.44297098298761    1.22769444169306    2.52492596386144
H        -2.42576236824380    0.26553382628742    3.02860340562881
H        -3.45096526445909    1.40992477899243    2.16078564970254
H        -2.18775051053470    1.99535587418001    3.25435565374769
C        -1.83375005038210    0.21031592267454    0.30299372200497
H        -1.07350061125779    0.15450174247203   -0.47289367429405
H        -2.77742482215307    0.49045391017648   -0.15895717284548
H        -1.95374908658512   -0.77673610568052    0.73951060167974
C         3.19211748112996    2.98056313715561    2.43311928407158
H         2.68963962196199    3.92271532281594    2.19097322251288
C         4.27086360974638    2.73818836894353    1.37402086540559
H         4.97098002910703    3.56984551288353    1.35733531114605
H         3.82619421827568    2.64283702195649    0.38566328949718
H         4.82415574079546    1.82804557048023    1.58844241494327
C         3.81826908045490    3.13893132362977    3.81926023324607
H         3.04634223019951    3.30372843805940    4.56725744873650
H         4.49357513729901    3.99134069833415    3.82444309594908
H         4.38564344878164    2.25561177659650    4.09721771679351
N        -1.15133275330394    5.37947356358670    6.92928764790105
C        -1.29228019455402    4.35563408858950    6.05809675619513
N        -1.81491634165667    3.35032073161251    6.79500133904586
C        -1.56070709342291    5.01629375968780    8.18216709389709
H        -1.50463419885524    5.68603446623686    9.01488557552640
C        -1.98388273746076    3.73453699540605    8.09665106026561
H        -2.38134332628015    3.07120977349147    8.83593240647657
C        -0.69740213110252    6.69794672365831    6.63902917998821
C        -1.61856155386359    7.63292836763921    6.15521996937388
C        -1.17518883098416    8.93299030585413    5.95872868597994
H        -1.85609618898211    9.68203229212986    5.59118249531489
C         0.12881959012328    9.28851889653370    6.25005916644645
H         0.45099705696392   10.30842811843095    6.10585628553345
C         1.02047664575837    8.34914516822600    6.73128680968371
H         2.03160909412343    8.64410203011673    6.96383881372050
C         0.62493233689597    7.03203828964409    6.93050871610192
C         1.60349536539208    6.00950967807817    7.45947354503505
H         1.10891005436166    5.03457801243535    7.52100704282526
C         2.07273956403660    6.39084304109614    8.86520401401825
H         2.72846214734740    5.61940387346709    9.26126978348007
H         1.22504497508120    6.50059711943976    9.53809557574044
H         2.61972798256404    7.32930831438039    8.85066847992297
C         2.79287028723991    5.85972740724341    6.50907566654494
H         2.44581530755994    5.61057487520112    5.50843086774524
H         3.44904977842215    5.06583908894587    6.85783190117159
H         3.36899708011788    6.77907115615818    6.45704187856730
C        -3.06244334646342    7.24562016215221    5.92773264473845
H        -3.09496989382287    6.18944885488822    5.63390252743292
C        -3.85263611372718    7.41943346774904    7.23059590213049
H        -3.46354916886147    6.78556290055231    8.02338024675953
H        -4.89640617456573    7.16115689132407    7.06867905893230
H        -3.80147188957422    8.45381279446238    7.56219157345802
C        -3.73026813335282    8.05127746193004    4.81602333188646
H        -4.69079730226564    7.60398902250956    4.57105314442127
H        -3.11087905822041    8.05869102779896    3.92329575211964
H        -3.91337664929724    9.07569115707535    5.12858384804762
C        -2.19658432131896    2.05447045640829    6.34307245883909
C        -3.50947562092652    1.85507903742839    5.91015668890361
C        -3.88062518986007    0.56945213913973    5.53989845462253
H        -4.89136159507317    0.37746705919064    5.21757648874608
C        -2.97117800909131   -0.47027413072453    5.58331018453896
H        -3.27728227329507   -1.46269097223533    5.28866413549359
C        -1.67785745215417   -0.25066529601415    6.01795695740137
H        -0.98151819466884   -1.07271610794065    6.05424583962217
C        -1.27285785207904    1.01181992804762    6.42926308840784
C         0.12407905288149    1.24342588894111    6.95455359764297
H         0.17209105078976    2.23081591401981    7.42516344202214
C         1.11798023144804    1.22671914132659    5.79307631585294
H         1.10074276254871    0.26422733559065    5.29004796428579
H         2.12594088850577    1.40905071704230    6.15728362219544
H         0.86300830550493    1.99393757517868    5.06308502920457
C         0.50789435484360    0.21065805233348    8.01549373852854
H        -0.25240686928977    0.15572543097992    8.79141829529792
H         1.45170241570745    0.49058767991359    8.47726806511284
H         0.62734689228206   -0.77672775636391    7.57958120017409
C        -4.51737742384690    2.98064272764581    5.88506124211238
H        -4.01493300638269    3.92276939968058    6.12733870465359
C        -5.59614311546620    2.73814715705248    6.94410971796779
H        -6.29624872979815    3.56982329610936    6.96095620174046
H        -5.15145847080098    2.64261605471648    7.93243600000142
H        -6.14945075951902    1.82805500664265    6.72953064429611
C        -5.14355562211431    3.13920564515604    4.49896062844758
H        -4.37163340022608    3.30423749834419    3.75101760641078
H        -5.81897591590447    3.99153121390891    4.49392189669072
H        -5.71080133809961    2.25585913759021    4.22083268851467

