125
CSD_code = FENDIN | q = 1 | S = 0 | Stoichiometry = C54H66CuN4(1+) | MND = 2
Cu       18.73224904760320   13.72830373846599    7.68568589585950
N        17.68471444097962   15.45066703595488    9.95279016454114
C        17.93234091970350   14.22672753103986    9.43952539036553
N        17.73722218761835   13.37429524898672   10.46977630264564
C        17.35538595511969   15.36479319420014   11.27932372902534
H        17.13024821437590   16.23162998252918   11.86557939138160
N        20.62180791493012   13.72612352318498    5.29303740579326
C        17.38895145983283   14.05172158427572   11.60514656425454
H        17.19596683779117   13.55010394494758   12.53026061154707
N        19.42238259399399   11.95065258320965    5.40515163940058
C        17.63320685888678   16.68445771284800    9.24434298092439
C        16.48097779511563   16.98092781951979    8.51002765128595
C        16.38013793934720   18.24411573149985    7.94351439142224
H        15.48467585716095   18.52453486369122    7.41243898325191
C        17.41627191366162   19.15250311400319    8.05664229761275
H        17.32346174413416   20.12799917915660    7.60443817380858
C        18.56858357297566   18.82025256321302    8.74306476397374
H        19.37164226559285   19.53524627228888    8.80688316852335
C        18.68812339359238   17.58920642307298    9.37415637367799
C        19.93150018207145   17.20936413547341   10.14408125734704
H        19.65860550570064   16.48866486520299   10.92262713008335
C        20.59581311569645   18.39980926280914   10.83425033534555
H        21.07805963055630   19.05517660113753   10.11442190962890
H        21.35904108060812   18.04330650983002   11.52170754965370
H        19.86671054085150   18.97507201937130   11.39992358821255
C        20.91656299377852   16.52843535640888    9.18879650554547
H        20.47595091963574   15.63662726643337    8.74268973410143
H        21.81822729373141   16.24375862973115    9.72546215229021
H        21.19167440280628   17.20534649621191    8.38411115875651
C        15.37269258830041   15.95658679554135    8.35098356673207
H        15.83601852243376   14.96251434118730    8.37109289834499
C        14.65500011994084   16.11845655159047    7.02308994758642
H        14.28947413668001   15.05029237915556    6.57275498234496
H        15.28655682778881   16.54028739528757    6.24906881554622
H        13.71678502687198   16.66227866849333    7.09867971827165
C        14.37703259703960   16.05438703659419    9.51233856281099
H        13.92841795601018   17.04482099724855    9.54152348562313
H        14.86695885946842   15.87602156159118   10.46668466277777
H        13.58718632805456   15.31696825719517    9.38989246232159
C        17.74643338070436   11.95431086043118   10.37151354422239
C        16.51859645484421   11.29318646526478   10.27207540402506
C        16.53892332416217    9.91175061166752   10.13484977561122
H        15.61003549501948    9.37319048295846   10.03829899766600
C        17.73137485234836    9.21501695765832   10.14810812647245
H        17.72641109538005    8.13977020932237   10.05815019455825
C        18.92838543596175    9.88506126339858   10.31168308906376
H        19.84577396826070    9.32254902669452   10.38145555469769
C        18.96141894640817   11.26949833075555   10.40981946319866
C        20.26779792191013   11.99543431598422   10.63057682513510
H        20.09825797034327   13.07412728637758   10.54781628399945
C        20.78367177902524   11.70169390247583   12.04236810844770
H        20.05246142278976   12.00334378402260   12.78921361415105
H        21.70706430081292   12.24602930305300   12.22428222774543
H        20.97965194668495   10.64007835807942   12.16707237431861
C        21.31400227417794   11.61630814908194    9.58312570198565
H        21.60665861513337   10.57452828166039    9.67640279799757
H        22.20304262965806   12.22621332235913    9.71694778695805
H        20.92333575454131   11.78616063943779    8.58078123719989
C        15.19965922440572   12.02699321610317   10.36720759906786
H        15.38236843972401   13.09209861921789   10.53685770565090
C        14.39251735480374   11.90372227553162    9.07571613535002
H        14.93464925949420   12.35060158804543    8.24572745683033
H        13.44022748561294   12.41760696446037    9.18356725494418
H        14.19224025890079   10.86278128081409    8.83953781826209
C        14.39568546396384   11.50421846177300   11.56148809804209
H        14.09443322662607   10.47213843713008   11.40817692813598
H        13.49868868497470   12.10386181545420   11.69574828051244
H        14.98429731270909   11.55545108737324   12.47507432827129
C        19.67368353841586   13.12071019208919    6.03884266303010
C        20.94680426398972   12.95780565064043    4.20853975955829
H        21.66685942897975   13.27305568693127    3.48295280517490
C        20.19029536503037   11.83720873509940    4.27883428846082
H        20.12262192724011   10.99812343765692    3.61918892953323
C        21.19116601432374   15.01091772718356    5.53237355556306
C        20.49536424879300   16.14285083299902    5.10188221850153
C        21.06727965698989   17.38710126015562    5.33116031185132
H        20.54306869792979   18.27875570105510    5.02691620336510
C        22.31027934133630   17.49521940256762    5.92407312811348
H        22.75122169648892   18.46877812238127    6.07589201862519
C        22.99880702657897   16.36091162665872    6.31019071417967
H        23.97644287766910   16.46058142422198    6.75271814730158
C        22.44782830110425   15.09833924872113    6.13630873011799
C        23.21573072690927   13.86544658514409    6.55176069404355
H        22.53815924351315   13.00481550539453    6.55379784255045
C        24.34108744040632   13.59445471669098    5.54845419883076
H        23.94582503583499   13.44640309213202    4.54621009628684
H        24.89104405656478   12.70183633432317    5.83599815277395
H        25.03359879938882   14.43178233533118    5.52031106035307
C        23.78891543047941   14.00291341034425    7.96280784985107
H        24.58063495542676   14.74545321347713    7.99701229686438
H        24.20995566682353   13.05216463664793    8.28120275550210
H        23.00899481096482   14.29490831765111    8.66198473168703
C        19.17100973342033   16.03623293057196    4.38458168443673
H        18.97069233329508   14.98553432903437    4.15339868681742
C        19.19628114851131   16.79750290857597    3.05748964083275
H        19.27032327981834   17.86899643101744    3.21800567692102
H        18.28188183789472   16.60158653794390    2.50255094692844
H        20.04190832383799   16.48136401248211    2.45079378995883
C        18.03951332315539   16.54047407079262    5.28087151629842
H        17.99121424214630   15.95368689380609    6.19771430044562
H        17.09139684876303   16.44982769296087    4.75585209883236
H        18.19251473542214   17.58229809578069    5.55063895284546
C        18.43421862387657   11.02132790643075    5.82468589523917
C        17.11115697619575   11.49438565433924    5.90923769518825
C        16.12080151158897   10.62559424962537    6.36823780228082
H        15.09891819441161   10.96963856125826    6.38705131470945
C        16.44262845733968    9.33286324183335    6.72307774663451
H        15.66994916389481    8.66110464420115    7.06360015332818
C        17.74443668739082    8.87974922632429    6.61142213686966
H        17.97062016037849    7.85803534135698    6.86871771597554
C        18.76567366991846    9.71153295685675    6.16111089922968
C        20.16912814005363    9.17041333925370    6.01776343294663
H        20.85880481528903    9.99859485098889    5.82351270929475
C        20.22958458204732    8.19935213894799    4.83423238097016
H        19.89375681145152    8.67345484243597    3.91437501651701
H        19.59268968921952    7.33789593980263    5.01729197204680
H        21.24866380313379    7.84910453797792    4.69004794695965
C        20.63938767343257    8.47489659314845    7.29550773528291
H        20.49233950579688    9.12770914513324    8.15075980317772
H        21.69619807017585    8.23175731320173    7.21485028841439
H        20.09440079349529    7.55125245437790    7.46701158402236
C        16.77080302036309   12.81600322012295    5.43467756492103
H        17.35138264339978   13.20612933400133    4.60437380789947
C        15.72630481749564   13.55307699717039    5.83891260942233
C        14.57686401236461   14.05582394358802    5.87482232708760

