36
CSD_code = FENFUB | q = 0 | S = 0 | Stoichiometry = C14H15CrF3O3 | MND = 9
Cr        2.33782600115896    2.60500249462884    7.11347158431608
F         0.52272331921272    3.01246919345346    9.22468212818677
F         1.85941342760116    1.36605818788577    9.59785295905960
F         2.54765417826640    3.39211544063822    9.86261447086804
O         2.02310910185919    5.56690981815881    7.35114297915946
O         5.00576595347864    1.79035589519392    8.18543768838352
O         4.68041675636864    4.25593650356389    6.29384322122798
C         0.38805884341863    2.29591478345193    6.07298619543469
C         0.63414600090781    1.12155999679243    6.83729110750502
C         1.85688001362512    0.55005738314581    6.38891666423115
C         2.33710028476938    1.33995842414838    5.30298193780499
C         1.43183824506195    2.41725967006983    5.10871362606738
C        -0.88122075228534    3.09050262799962    6.10939630443287
H        -1.66308172061022    2.56907932614919    5.55333804186216
H        -0.74478958831351    4.07315230335900    5.66381197998268
H        -1.22475757031396    3.22485163573378    7.13305789803672
C        -0.34670608347107    0.46398282089533    7.75598382624650
H        -1.01386287723990   -0.17298874079831    7.17074806152137
H        -0.95451384758688    1.19754608098909    8.28002619078553
H         0.15512653137078   -0.15805402550365    8.49306868151534
C         2.38790893691466   -0.78449346455829    6.81424526535508
H         1.84689638042112   -1.58222186945540    6.30118307994868
H         2.26564484573694   -0.92588280347204    7.88632531368042
H         3.44446802562906   -0.88290704697541    6.57571378983763
C         3.49443161161893    0.99742129706861    4.41808953670513
H         3.16465870600904    0.34402946652345    3.60793113521497
H         4.27407952965956    0.47912577557403    4.97285596069182
H         3.92935211091159    1.89090156903157    3.97462841003934
C         1.47207540168088    3.40286806086457    3.98310970463871
H         0.93663011001755    3.00495692216916    3.11882898603174
H         2.49566129612894    3.61211950471450    3.67861397387262
H         1.00301335473982    4.34285829000004    4.26682074250142
C         1.80613651483967    2.60526278404698    9.04477034631956
C         2.12755432199434    4.42325654447247    7.32218589949140
C         3.96048170163827    2.11141589456978    7.83091742829732
C         3.77138093478318    3.61241925546874    6.61601488074684

