37
CSD_code = FENFEM | q = 0 | S = 0 | Stoichiometry = C18H11Cl3FeN4 | MND = 5
Fe        3.23163214971856    1.71284273103713    2.88249233079212
Cl        4.31353930310969    2.98023812227668    4.10050825117492
Cl        1.61094180042028    1.58727828927758    1.61239420283707
Cl        6.67770651868556    4.75792757454296   -2.48945943063495
N         1.73761377020220    1.52151258084778    4.61485616277974
C         0.82995526466006    2.29048433613078    5.17093388376994
H         0.70775492256324    3.27546653578855    4.74310859589624
C         0.05094964972492    1.87921281683281    6.25887046626760
H        -0.67870455882575    2.55748886102033    6.67214180719672
C         0.22409012932737    0.62030010405518    6.78606487087427
H        -0.36547786457675    0.28090703701803    7.62545041366426
C         1.18595762557795   -0.22996915113285    6.21676845112924
C         1.91764442457417    0.28363368775587    5.12326622309607
C         1.47323486624675   -1.55152213602538    6.65539012148087
H         0.91269817890370   -1.94267794232415    7.49160559351117
C         2.42565873748665   -2.31368190274545    6.04788935635869
H         2.62652771275185   -3.31517898087882    6.39900284433977
C         3.17760523342982   -1.82563336663816    4.94806358358709
C         2.90478171577162   -0.52301757045134    4.50400352844563
C         4.18740219484361   -2.54467531572297    4.25554083787580
H         4.42405496607220   -3.54978275995415    4.56967976704516
C         4.84804309742405   -1.96899629405263    3.20779513978642
H         5.61907681357124   -2.48800764261323    2.66293033470875
C         4.52486926208128   -0.64977898592197    2.81090481006275
N         3.55449395814179    0.04588613448287    3.47196840159952
N         5.08329851010617    0.03747763026399    1.81844207635817
N         4.55560691098936    1.23864615725315    1.71462047145388
C         5.06919658690568    2.04585149614472    0.71672365901540
C         6.09402363394807    1.60989449715287   -0.13166984817476
H         6.48451832398717    0.61434520526006    0.00417461828917
C         6.58637012455137    2.44093992705259   -1.11441259671206
H         7.37623967667654    2.10537400149115   -1.76802884459279
C         6.06100587447218    3.71764413842445   -1.26159644991344
C         5.04303777896240    4.16714904371402   -0.42961308028134
H         4.64440614248594    5.16131808128492   -0.55610773562249
C         4.55096890984327    3.33564883277800    0.55251196571670
H         3.75567765518666    3.68085422659611    1.20548521681101

