73
CSD_code = FENKOY | q = 0 | S = 0 | Stoichiometry = C32H24F12O2P2Pt | MND = 4
Pt        6.61198203507399    2.27033812184943   -4.68742708770529
P         5.08941669823562    0.64044108993729   -4.98705275328958
P         8.54438041242170    1.19993173652279   -4.30652245101643
F         3.86785914083720    4.13888906679276   -2.55661929549293
F         2.49207850715736    2.49016065171163   -2.64136208206667
F         4.59986352607978    2.11461343570681   -2.60321394901651
F         2.66697717698970    3.92197202297361   -6.54168820187579
F         1.39750365219701    3.40702025346256   -4.89544187790575
F         2.68499151262084    5.12111294755088   -4.75854160408467
F        11.09058116245979    5.00839118467940   -3.64061886201340
F        10.30348009117877    4.93088715234706   -5.63186594095414
F         9.39603724261042    6.21758836193417   -4.17199674548283
F         8.04115055002096    5.12148062941911   -2.16038424103618
F         9.68576837702700    3.84610521548040   -1.63238895114759
F         7.78465699220432    2.98430896640425   -2.12609286154522
O         4.92878490708165    3.43244301834169   -5.08672898638420
O         7.91769236039272    3.89837254212721   -4.73833191854797
C         3.46351064367659    1.50681800122860   -5.14907305490468
C         3.74918035038420    2.95483098782862   -4.66218598825949
C         9.82555469270026    2.52418596968750   -4.13242227423920
C         9.01317602798444    3.83975526610387   -3.96454716009596
C         3.66630399772166    2.95590289921305   -3.10943336203435
C         2.62517447631132    3.87441901881442   -5.20647738396480
C         9.94080179203474    5.02218449610280   -4.34572116466855
C         8.63453257722512    3.97771824874852   -2.46366209041672
C         4.88574073138734   -0.78267993148040   -3.88335924651973
C         5.90270499652773   -1.73623974944023   -3.93914782519922
C         5.88643956339003   -2.82509686313586   -3.09126603507052
C         4.86010826059654   -2.96601830350843   -2.16898721494606
C         3.85727172396166   -2.01450426819765   -2.09879527716889
C         3.86728567523997   -0.92055985818497   -2.94860990814486
C         5.33723391481548   -0.06977389250934   -6.64080471921322
C         5.90768984921960    0.79221649382569   -7.57533785304217
C         6.13297410450519    0.35938790643255   -8.86798203131304
C         5.79664879324704   -0.93576681304900   -9.23006005259770
C         5.22291485064722   -1.79150163997593   -8.30393742697587
C         4.98684107746474   -1.36268423757288   -7.00918147933858
C         9.08985002613599    0.23964931292495   -5.74659638650997
C         9.17827584503618    0.94538512192060   -6.94592151265735
C         9.47411123853465    0.28154186373936   -8.12037596140622
C         9.66149125346521   -1.09216165247619   -8.10966445405830
C         9.55550483682009   -1.79855083445614   -6.92345498444826
C         9.26722223963002   -1.13832277169824   -5.74121601775221
C         8.77611862881936    0.14611086731336   -2.85148521055443
C         7.71327457242703   -0.03703244631093   -1.97494512529709
C         7.87356776482933   -0.83969144362492   -0.85961705141364
C         9.09083477304231   -1.45546853136108   -0.61819457850025
C        10.15556072815207   -1.26339103464235   -1.48567219293708
C        10.00313210864010   -0.46278097099340   -2.60261072772427
H         2.64179096973231    1.02563662171588   -4.61493826511390
H         3.21863204483392    1.55128153994409   -6.21493100446284
H        10.40231926881699    2.58604519205128   -5.05960534894323
H        10.50389882173319    2.33901206942534   -3.29557213537182
H         6.70158835284721   -1.60433391707656   -4.65797664569531
H         6.67427840197813   -3.56162676405087   -3.14225015472583
H         4.84643691993550   -3.81492405084107   -1.50237624845999
H         3.06257437640739   -2.11912823688083   -1.37567350491911
H         3.08426576814612   -0.18207840462315   -2.86682469781119
H         6.16244693941907    1.80443981520854   -7.27075283879559
H         6.56970279413261    1.02855777955440   -9.59323781432436
H         5.97690859684487   -1.27828497155836  -10.23790686999063
H         4.95382862712537   -2.79687596769253   -8.59164390032403
H         4.53557515324085   -2.02884157270241   -6.28802254705107
H         9.00307385870774    2.01445453652105   -6.94483875054136
H         9.55371588398720    0.83098553989889   -9.04590135323183
H         9.88704547603683   -1.61314198505199   -9.02775511280635
H         9.69681759528263   -2.86910927671178   -6.91777101355649
H         9.18740580674199   -1.68984131638203   -4.81512154755986
H         6.77766132770261    0.47000561685467   -2.16845822791171
H         7.04940013282167   -0.98029753003059   -0.17727483240010
H         9.21628284858919   -2.08053803314029    0.25315701041939
H        11.10629180120885   -1.73592218868100   -1.28849342471979
H        10.82982177454062   -0.30661210423771   -3.28280721075048

