75
CSD_code = FENLAL | q = 0 | S = 0 | Stoichiometry = C36H33N2O2PPd | MND = 4
Pd        4.30579724926826    1.54612196815949   -1.92843067154002
P         4.69220334696546    3.62114895792911   -2.58979293165412
O         3.22235868159583    1.43106968164362   -3.82653077626418
O         4.14695587763459    5.95906324142515   -3.91037243697547
N         3.85966912208329   -0.45592180608577   -1.36777688959926
N         2.38464228531355    5.40575151257438   -5.27505261574173
C         5.28004743906110    1.56004433750035   -0.20240234946861
C         6.21408667527821    2.47980682831651    0.25973963629502
C         6.87871032013056    2.28246733531940    1.46096346998939
C         6.62894532864822    1.15236275633060    2.21857266014594
C         5.70767143084055    0.22009142750806    1.77414245072112
C         5.03673698633597    0.42010901654787    0.57689670459523
C         3.99258933025133   -0.55828055307879    0.09141616552986
C         4.93270013751092   -1.19226488402446   -2.03605406063576
C         2.56147940780159   -0.93044966587623   -1.82989198565498
C         3.56490647950625    3.74429358789079   -3.99099494347685
C         3.06283824476174    2.52647489111627   -4.44233463725416
C         2.31876277547073    2.44926705035857   -5.73567242563833
C         1.05637680453212    1.86746445811531   -5.77896783066520
C         0.37582711588350    1.76980507829509   -6.97977827820954
C         0.95847095951837    2.23270508189701   -8.14780611820309
C         2.22748694412208    2.78912796599246   -8.11533487633946
C         2.90759741679842    2.89783246483449   -6.91628802574349
C         3.40311806338387    5.11261117001877   -4.40643950423565
C         2.04553792887307    6.62160369479292   -5.85930595568510
C         2.65020391594851    7.82719118675769   -5.51353640981425
C         2.25572444186698    8.99667247641599   -6.13622177185953
C         1.26284547429336    8.98711279685249   -7.10112746843826
C         0.65949416879206    7.78876626358867   -7.44631842988143
C         1.04575829642347    6.61390661833264   -6.83272885984442
C         6.39639071582237    3.83483731200258   -3.19771589157298
C         7.13683091813752    2.65202987103449   -3.23516380236595
C         8.43122295691953    2.65298437271741   -3.71924183399872
C         8.99741837265640    3.83577856208799   -4.16916037622192
C         8.26101532237430    5.00864909945799   -4.14749691410592
C         6.96125669624104    5.01373557242647   -3.67030689688956
C         4.18832688919675    4.81744354138383   -1.32688637064875
C         3.05308026773605    4.40405664835191   -0.63117804380729
C         2.53519148350637    5.18704545567295    0.38049772447929
C         3.16325473088568    6.37837078873048    0.71409347645296
C         4.30529686333693    6.77616590591320    0.04023969924487
C         4.82425651415887    5.99885351208171   -0.98167984864838
H         6.42929221821463    3.37332546593553   -0.31776534040532
H         1.83642315857641    4.61830930655583   -5.59292535892253
H         7.59616650403790    3.01433151291187    1.80393079470559
H         7.14904036495151    0.99460078679435    3.15217374653824
H         5.50675646527970   -0.66661111209536    2.36109197682346
H         3.02961236197076   -0.29181357723743    0.54571370048528
H         4.23115055717595   -1.59142264108945    0.39203926564648
H         5.90063797956126   -0.87923189668281   -1.63056988340583
H         4.82200898079808   -2.27717418961897   -1.88418334629963
H         4.90518928115677   -0.98197309564671   -3.11185089429818
H         1.76751022142145   -0.34436516778962   -1.36028250904235
H         2.49381156848961   -0.79977715302472   -2.91187299178631
H         2.41281323514366   -1.99332168444062   -1.58703091952872
H         0.61170880291218    1.50356025631834   -4.86413907082027
H        -0.60970245569999    1.32815155539398   -7.00472293651172
H         0.42699910511672    2.15445241591318   -9.08475546425683
H         2.68803518404799    3.13976271108907   -9.02703751267133
H         3.89731809756725    3.33037789401271   -6.88381899008121
H         3.42109108980306    7.83314433130070   -4.76143709682819
H         2.72998424603538    9.92745673107389   -5.86103019801420
H         0.95961946175209    9.90540463660347   -7.58145022877425
H        -0.11603104538836    7.76862132347184   -8.19837109374907
H         0.57715810040133    5.67672617122356   -7.10415881525349
H         6.67463945763736    1.72608754202980   -2.86812203970548
H         9.00221039942748    1.73602923614439   -3.74501621388442
H        10.01111593688014    3.84049529392970   -4.54280188300431
H         8.70065917663024    5.92657735893538   -4.51023157072762
H         6.37270855332145    5.91695159122178   -3.68668419089305
H         2.59592231087352    3.44279571085777   -0.89683828291290
H         1.65183238618703    4.87294878071282    0.91781517069961
H         2.76390107807655    6.99254940943486    1.50808457921888
H         4.79545250773952    7.69976641970812    0.31249992764259
H         5.71148033000222    6.30995849472425   -1.50972408630916

