56
CSD_code = FENMOA | q = -1 | S = 0 | Stoichiometry = C20H25MnN5O5(1-) | MND = 5
Mn        1.42795210441589    4.23353693314303    4.11970209053027
O         2.68730899516186    4.33368723518197    3.36350913271700
O        -0.57026446934047    1.20773984469637    2.48681422885929
O         2.36109947897536    3.97618990242333    7.98368261778998
O         1.21796479950135    8.07031177771916    5.23036383896467
O        -0.93556464612479    6.16524759477236    1.51354454578261
N         0.69850745222882    2.54348722078141    3.87048235312297
N         1.75727129945785    3.51280855126007    5.80257518962741
N         1.22147811140680    5.79327995659358    5.12278087009623
N         0.02702327309193    4.70544751411858    2.97478454699439
N         2.22579135081646    1.42627304342170    6.89412083394082
C         1.12043297365423    1.55833463310197    4.75265756934551
C         1.00008169499831    0.18269476941662    4.68566485177254
C         1.51657659023638   -0.55404456436295    5.74970829720436
C         2.10911701251261    0.10573649084702    6.80934749782656
C         1.74463035778165    2.13234047965696    5.89061202855482
C         2.04430543531766    4.31328615982711    6.86176982825000
C         1.88339551983277    5.78005332298692    6.44393312549350
C         1.05615536193691    6.47524010462789    7.53109295330974
C         3.29985276914859    6.36488903020988    6.34667472844937
C         0.93254330536857    7.02629290995862    4.65050781637751
C         0.18562664700214    7.16741192844274    3.32101821246764
C        -1.08393471289120    7.99351272501900    3.62876614377081
C        -2.03287608516830    7.24228423420052    4.55467915624949
C         1.10268910805569    7.97801161083139    2.37954798856339
C         2.37815789820677    7.21764551587236    2.04140154810753
C        -0.28252889439045    5.94362403124356    2.52969855608577
C        -0.50711315656060    3.60472502531214    2.14510649531330
C         0.16838689783992    3.58413808566060    0.76660208776367
C        -2.03579948222067    3.63673914100811    2.02845579007415
C        -0.13608654238289    2.29350524224643    2.83922431328062
H         0.52363137922437   -0.29222076849746    3.84283915920849
H         1.45378106699726   -1.63249282447664    5.74323395922243
H         2.52094634554669   -0.43963090180712    7.64936546736572
H         1.06376827133692    7.55156259850054    7.39201326807348
H         1.48300266422964    6.22025503691850    8.49883431840975
H         0.02827073228626    6.11533469017082    7.49600998077297
H         3.82695219207801    6.19256611318117    7.28239218482073
H         3.24591066613727    7.43079139729179    6.14252375011337
H         3.83074547392072    5.86511643048490    5.53346827619231
H        -0.77836026766880    8.93087173852514    4.09738259192170
H        -1.58791933516359    8.21336556211745    2.68569897320449
H        -2.91964317068154    7.84092306909137    4.75916477228811
H        -1.54144110219755    7.01739554523124    5.49908576211484
H        -2.34545467667868    6.30566722055861    4.09720101257275
H         0.54695086141768    8.19519501049955    1.46460223391066
H         1.35320314749366    8.91905242861642    2.87412316742704
H         3.00984839190479    7.80675581506194    1.37794345248886
H         2.14141384907319    6.27337150992181    1.55207086102464
H         2.93831188493340    6.99067434887775    2.94800664792577
H        -0.11236690813924    2.67396439297418    0.24102863142244
H         1.25120560315227    3.60367972996670    0.90654378209279
H        -0.13840004309787    4.45339577940037    0.19172240368334
H        -2.36749239500241    2.68894844156800    1.60932868749163
H        -2.35454182289299    4.45651754567063    1.39299443540650
H        -2.47570325607847    3.75660963993396    3.01819298415965

