63
CSD_code = FENQAQ | q = 0 | S = 0 | Stoichiometry = C23H37NOZr | MND = 12
Zr       10.37391667216250    3.00195482802703    7.85912769968414
O        10.32263035914478    5.21054196356149    7.04252820960721
N        12.00807666674797    2.72309720178537    6.99027965420092
C         7.92164845033196    3.22975158232114    7.20575332347681
C         8.05586606716056    2.04118145957516    7.94688389541638
C         8.85491445905098    1.14530839133120    7.20320652435039
C         9.17855070735160    1.77497790614445    5.97849496879745
C         8.60794837134664    3.06105167557527    5.98464989065791
C        11.55209529770193    3.91656078177911    9.79231581845956
C        10.29379318576682    4.52344693789371   10.03840556021560
C         9.37278828018901    3.50914440038494   10.39803488671944
C        10.04217289216834    2.26530507486554   10.34718914850157
C        11.39466006105088    2.50639009554946    9.97329855050345
C        12.86927967091882    4.59843516205814    9.53052939303570
C        10.04583144139712    5.99969071189334   10.19844965784185
C         7.97701735537662    3.77746176665769   10.89072518522623
C         9.52860181469180    0.91973306152115   10.78957056720993
C        12.52302075473494    1.51078118019523   10.04077081444616
C        12.80247564317279    1.92428213196968    6.13688509921110
C        14.31255247143950    2.11119313049066    6.45269138601720
C        12.59473807298030    2.31400279918818    4.64463871781040
C        12.46440055839238    0.41543121398664    6.31175270996146
C        11.40336380183639    5.50135476804101    6.15123071459012
C        11.68004379856703    6.98988712935857    6.36793026370992
C        10.28043323169570    7.55389424858255    6.66865696837827
C         9.41374835451102    6.29362187155505    6.86045353116749
H         7.27698183036047    4.06428015187946    7.45885724330214
H         7.51655844110568    1.79990563875868    8.85169793978954
H         9.03852003078389    0.10250886573351    7.44372282415179
H         9.64033032579219    1.29864465285135    5.12450782757946
H         8.59571864825471    3.74297587418177    5.14126084883035
H        13.35772253103919    4.14248711421247    8.66443114849256
H        12.73034714120763    5.66217984938783    9.34242759086852
H        13.53039215351183    4.49452023087844   10.39429469840671
H        10.66040113115978    6.58740524991540    9.51708756924348
H        10.29413977191849    6.31251848512229   11.21709779162418
H         8.99727703512991    6.24774407091684   10.03261569987592
H         7.36106452862780    4.27448335413391   10.13675586546878
H         8.00624159631461    4.42452822515109   11.77018552153160
H         7.47600178435028    2.85582878657058   11.17947130358098
H        10.02968627137024    0.60980353114110   11.71020635626580
H         8.45938339117971    0.94436966884031   10.99168661987721
H         9.71524535333780    0.14920448161605   10.03540889591901
H        12.16028115358771    0.49272773147984    9.89265148471495
H        13.00884100271830    1.55386566326170   11.02050791672110
H        13.26939069971696    1.73575479734939    9.27918488233223
H        14.53905936003570    1.72560790740476    7.44422363498702
H        14.56549410780460    3.17021383849183    6.42737568759768
H        14.92634768515216    1.58607644189140    5.72384453978104
H        13.06374377162704    3.27583171552672    4.44433080401426
H        13.03326372911568    1.56748769139672    3.98578066394041
H        11.52936688523706    2.40098449180511    4.43520475596337
H        13.21517096652171   -0.20967340237447    5.83107293395717
H        11.49176499730247    0.19425284855319    5.87747584277494
H        12.43099005340106    0.18128982467554    7.37740309246243
H        12.21079890313616    4.80488404368601    6.42239302721150
H        11.08018509818674    5.31651336875359    5.11493535077735
H        12.13834471759636    7.45246707602704    5.49758213309614
H        12.34295478537235    7.12569443256637    7.22179533924233
H         9.90356675105607    8.15972253190729    5.84679139312924
H        10.28613729689742    8.16930595541007    7.56633036591533
H         8.76234680516231    6.35030225691684    7.73342883962199
H         8.80187082505678    6.11662107971412    5.96361842782016

