57
CSD_code = FENROI | q = 0 | S = 0 | Stoichiometry = C28H22N2NiO4 | MND = 6
N         2.16575734765440    4.39455130806681    0.94826163652612
Ni        3.37810721181301    3.37810721333601   -0.00000000199834
O         3.27317970552890    4.56034525044851   -1.60220518368438
O         2.24025816939049    1.66252531802490    1.25943231570204
C         2.66134818951027    5.66853081620236   -1.68650916484870
C         2.78089216862408    6.44509841981158   -2.87670862643643
H         3.41586262524369    6.04937292220385   -3.65528675716122
C         2.13524611986494    7.63736874861177   -3.02516304650139
H         2.25540912223821    8.20431314942280   -3.93791428220376
C         1.30871966597902    8.14153871078514   -2.00864361847734
H         0.80296704058060    9.08537160012805   -2.14443561808190
C         1.15449504930968    7.42699669689619   -0.85490221737033
H         0.52107603794547    7.80570460815824   -0.06341548133132
C         1.81790003994160    6.19810521390200   -0.65083428790224
C         1.60280343707859    5.50225829251663    0.55927474171290
H         0.84114359091413    5.94102058157472    1.20838585790102
C         1.76983619008897    3.82793647418033    2.16647588976208
C         1.40515833878376    4.59384135555222    3.27500837876714
H         1.51593142128338    5.66727927475585    3.23902938116592
C         0.93473693012854    3.99549540993737    4.42821181012278
H         0.66068981014195    4.60835848515938    5.27361474910085
C         0.81948910806545    2.61837115251687    4.50460906501507
H         0.44772378299223    2.15059493393293    5.40321314237108
C         1.22012019281105    1.83550276071621    3.43553772897526
H         1.18228743105805    0.75819077984170    3.50674270865303
C         1.71059666928255    2.42565080644155    2.28213247888576
C         1.40953319210519    0.72941091929355    0.60472229036090
H         0.65260389065415    0.31009187027394    1.27587767307598
H         2.07468854670127   -0.06698693901592    0.25478910063754
N         4.39455129373443    2.16575731964087   -0.94826161784901
O         4.56034530284840    3.27317977907525    1.60220514500922
O         1.66252531486541    2.24025816591588   -1.25943230788816
C         5.66853096933359    2.66134844148771    1.68650904171043
C         6.44509836044219    2.78089206506994    2.87670868014260
H         6.04937288692295    3.41586256837495    3.65528678594703
C         7.63736867366591    2.13524598463288    3.02516311397211
H         8.20431320246232    2.25540920957676    3.93791423104629
C         8.14153871532502    1.30871966317761    2.00864362036327
H         9.08537162597078    0.80296707176752    2.14443559883218
C         7.42699666961275    1.15449499737605    0.85490225021283
H         7.80570461829972    0.52107605076768    0.06341547982110
C         6.19810522862349    1.81790005664836    0.65083428883582
C         5.50225824476184    1.60280336580087   -0.55927469269509
H         5.94102061414445    0.84114362145672   -1.20838587322643
C         3.82793647024110    1.76983618339792   -2.16647588252327
C         4.59384135411211    1.40515831714011   -3.27500836703697
H         5.66727927063011    1.51593142618134   -3.23902937928556
C         3.99549541006901    0.93473692432189   -4.42821180603459
H         4.60835848462801    0.66068981102396   -5.27361474796409
C         2.61837115118027    0.81948913245900   -4.50460907349310
H         2.15059493537324    0.44772377413875   -5.40321313755563
C         1.83550275938863    1.22012020978144   -3.43553773345422
H         0.75819078110228    1.18228742404591   -3.50674270396979
C         2.42565080356653    1.71059667997254   -2.28213247959937
C         0.72941091196778    1.40953318429987   -0.60472229827467
H         0.31009185994721    0.65260389468182   -1.27587769643979
H        -0.06698693893035    2.07468854411064   -0.25478910133676

