89
CSD_code = FENRAS | q = 0 | S = 0 | Stoichiometry = C44H38N2O2P2Pd | MND = 4
Pd        2.12935007764990    1.35184347209704    3.56551012876312
P         2.29066525651263    1.61607306307614    5.75125674526770
N         2.30757011535847    1.02182334135360    1.57380686080733
P         0.83377915792847   -0.38835911907340    3.12979033561953
N         3.22145789445993    3.06877259431053    3.31795569541333
C         2.45555405196160    2.39610520619296    1.11738790443241
H         1.50197014334339    2.90878623538720    1.35533450442679
C         3.57257252511475    3.11738866541451    1.89740676721891
H         4.53586553960294    2.61724783219945    1.71230636781651
C         2.73703840428453    3.94253277363064   -0.83336776807901
H         2.90275166680018    3.99564739881274   -1.91168445484888
H         1.78748155777974    4.43945691161376   -0.61405958855177
C         3.28067599466068    0.14118841602520    1.29630196923769
C         4.50853715455951    1.00530516381290    7.38832671607424
H         4.07766133147601    1.67702392173919    8.11895958201772
O         5.16453597681658    4.13293184779291    3.86262190059759
C         3.65467059176813    4.57183375456219    1.41494226056261
H         2.72465075018763    5.08032794870048    1.69019233664690
H         4.47824517083337    5.06356287836136    1.93275672823560
C         1.76300621206450   -1.68347605092437    2.28464980216570
C         2.66900525112741    2.48549669999244   -0.39638167522246
H         3.60058440458657    1.98062953695233   -0.65248292656863
H         1.84747515462926    1.96419877523362   -0.89706607106115
C         3.84878811357207    0.77925166912929    6.18335999000234
C        -0.05400903319933   -1.32352653300865    4.41898965245742
C         6.29514326926848   -0.42976591450385    6.67460973542129
H         7.25023546624381   -0.89566358659338    6.86597146598011
C         3.49783993834158    4.05418492944852    5.52350007646191
C        -1.22532606964174   -2.72452613441271    6.50326823300121
H        -1.68322587466080   -3.27291734926881    7.31287240612915
C        -1.09662314460182   -0.55710012127930    1.06696578450358
H        -0.82442161326091   -1.59839380574717    0.95929097891640
C         4.05725716869484    3.68543422319354    4.16135323777141
C         2.12475090881223    3.79935848569682    7.50595622184764
H         1.44619983418497    3.19794997415796    8.09665261055252
C         5.72477819696958    0.39385968127674    7.63233230196412
H         6.23709130375226    0.57142242265973    8.56653240309272
O         4.33525313560663    0.36480866823772    0.70296004258059
C         4.43413774942792   -0.03706896141851    5.21561162899404
H         3.93329552217790   -0.18849858310546    4.24866160654945
C         3.71912751442783   -2.28382189169558    1.02806129641320
H         4.60467991076281   -1.96459107780180    0.49762853707994
C         0.99418837982418    0.99882817385105    6.86368466411014
C        -1.43198415510699   -1.48746512931032    4.45556806466191
H        -2.04577195102849   -1.06979000890492    3.66966677255233
C        -0.46734747908509    0.22386061941261    2.02773141578184
C        -1.75919745905700    2.13139405190963    1.34622251130462
H        -2.01675460883141    3.17594794745650    1.44446545266650
C        -0.30900483731691    1.24719323962125    6.44040806389897
H        -0.45948890281639    1.76923325776870    5.49856358709412
C         1.21748216037025    0.30788265098056    8.04702026823800
H         2.22681094666588    0.09449764611067    8.36780791045530
C         0.73257894841818   -1.84869522929580    5.44188860784965
H         1.80674852373983   -1.69197606314572    5.40980603953079
C        -0.79670022461761    1.57177572919093    2.16510706547482
H        -0.27125725762661    2.17696845722611    2.91774507537742
C         3.86724353603821    4.64736025432253   -0.09172027931889
H         3.92374000574274    5.69452536926297   -0.39820457652037
H         4.81583839082805    4.16978181239144   -0.34449873162954
C         3.87086360555957    5.31229799675271    5.98743855046734
H         4.56428339838075    5.88498310234307    5.38931899714820
C         2.62882012984042    3.29422882138555    6.31082391838161
C         2.49017914144344    5.06223085138760    7.93318695359492
H         2.09445334012965    5.45306744714709    8.85936575827019
C        -2.01250722530299   -2.18916518802716    5.49852993393123
H        -3.08449364963232   -2.31953153440932    5.52549504891378
C         0.15082896542539   -2.55395967302098    6.47525828360855
H         0.76392829608627   -2.96711518325567    7.26239120219306
C        -1.38111761030329    0.82685794929957    7.20160864520886
H        -2.39090134086147    1.02127642864975    6.87221995458237
C        -2.05609378841424    0.01212859439238    0.24740876758440
H        -2.54351657374380   -0.58802845185020   -0.50692561680330
C         5.65371593100950   -0.64050042200241    5.46444673144712
H         6.10903596284324   -1.26427710466622    4.70972654812127
C         2.23288545334630   -3.99453769035175    1.81093777411541
H         1.96229911447413   -5.03735799662574    1.89013075722061
C         3.37431996675948    5.81433783091041    7.17568124064725
H         3.67388211157878    6.79597131146433    7.51222894156141
C         2.91455152128814   -1.30018535061001    1.59042169312643
C         0.13928674776463   -0.11362712698567    8.80594955695729
H         0.31037654886067   -0.64953831521332    9.72809043441464
C         3.38610073373131   -3.62116826824262    1.13876373935735
H         4.02153327092442   -4.37418953442533    0.69641067697290
C         1.42881280766601   -3.03014492107405    2.39217193226530
H         0.53928038617892   -3.31998647173660    2.93551731025514
C        -2.38749005346101    1.35022160438118    0.38748734473604
H        -3.13289007126315    1.78946560363697   -0.25878314192820
C        -1.15505079033244    0.14642457530484    8.38818213676955
H        -1.99077702654109   -0.18663902562686    8.98521168460922

