27
CSD_code = FENSAT | q = 0 | S = 0 | Stoichiometry = C11H11IO3W | MND = 9
C         2.76304350460593    3.29030176473440   10.23862677127400
O         5.54593804834622    3.78605230803068   11.34115574025616
O         4.26885828220416    6.90436603486277   10.57914030043899
C         4.03373486613955    5.98074191321908    9.93657421410792
O         2.25027096039362    2.64304509329992   11.03724100206174
C         1.64148153404225    5.32735905038039    9.11729847518701
H         0.91648909201846    4.62923938037905    8.68142946317485
H         1.33618454977479    5.48626384275840   10.15658535563353
C         1.53201604935767    6.66358836797772    8.38785574647922
H         1.72419767162554    6.54741837453051    7.31878484984665
H         2.25259137846796    7.38259575558042    8.78524619425647
C         0.12930117271178    7.22117487017487    8.57445139981534
H        -0.07713770257669    7.43793612223015    9.61920794791616
H        -0.62700845335818    6.54086555989256    8.18972084036751
C         5.24639123146222    4.32551868110282    7.13060093074776
H         6.27102381773525    4.67573686518245    7.13703101093052
C         4.83034317595746    2.98316553234958    7.34910160029125
H         5.48402460999112    2.14942483153911    7.57069777834405
C         3.01540485454521    4.17647241334011    6.63402035038771
H         2.05295407008062    4.39136335867514    6.18716079593622
C         4.12074185099366    5.06365541690906    6.69127184753431
H         4.14495113600992    6.07087897095850    6.29446359798380
C         3.45238187415910    2.89502503094241    7.04723514077711
H         2.87486761273401    1.98133150439278    6.98345444150802
I        -0.13835704645236    9.08392728043809    7.50346790259552
W         3.71318509713421    4.35026425664093    8.87195940858349
C         4.89972676189662    3.98088741947842   10.40731689356482

