62
CSD_code = FENSOH | q = 0 | S = 0 | Stoichiometry = C24H27N5NiO5 | MND = 6
Ni        0.00577919131436    6.41469263650570    4.11442185639936
N         1.45516771327267    6.54543686762194    2.63337178966212
N         1.23510415344671    7.31948640680044    5.03261477034284
N         1.00383966853399    7.65498951866169    6.28220643979099
N        -0.93913220635341    8.37044605113133    3.33175135576185
N         0.76838618937049    4.31008409007679    4.70762734317546
O         1.47102985321977    6.09678592803607    1.34614314653011
O        -0.98794466530971    6.59231952978615    6.01785246556754
O        -1.64186700839441    8.46535388853666   12.01878388535707
O        -1.38457550824358    5.47227783507999    3.25020575688960
O        -0.63199596036961    4.62228395168103    1.33095524464274
C         3.64163894921813    7.60164778266304    2.21849036741468
C         2.45354772878719    7.24922699628905    3.05501429068051
C         2.33450575545614    7.67433790026326    4.42677756248321
C         3.40436255910474    8.47060722983835    5.10465010709556
C        -0.18139717594291    7.23443857332710    6.73408386359074
C        -0.51928628639699    7.57745265242221    8.12677594930590
C        -1.78212066261251    7.25218758386626    8.62449741173137
C        -2.12340056160084    7.56190566331192    9.91970592864073
C        -1.20724963199243    8.20553474392232   10.75711834034435
C         0.05425677857317    8.53184945706167   10.26485308653001
C         0.38902146591073    8.21924922048455    8.96105038396120
C        -0.77141996731222    9.11283060252438   12.91471362561109
C        -1.68061711905635    9.09664844249780    4.16336787366536
C        -2.79173494129968    9.81719694389642    3.75625864625110
C        -3.15154111805750    9.78785702956190    2.41921330460670
C        -2.37052545516991    9.05050480527587    1.54431423488091
C        -1.27834171703226    8.36099198751954    2.04414119207753
C        -0.16173754315913    3.65072437650149    5.39708909220580
C        -0.39757364786126    2.29428885315929    5.24327557614812
C         0.36562241500367    1.58179399738997    4.33323173992352
C         1.35030757105584    2.25655003324646    3.63076944993765
C         1.51445364062539    3.61333194308422    3.85319318869706
C        -1.48392434999375    4.75330890548806    2.22491343132804
C        -2.79337564602566    3.97614233854049    2.09559945180303
H         4.55959083285667    7.28440114988587    2.70932355762916
H         3.68958615149757    8.67895944633778    2.06826386628952
H         3.55921805485467    7.11297751114074    1.25119494976458
H         3.06171668487458    8.74651586693867    6.09756844566510
H         3.63034951042042    9.37024054829586    4.53481856782005
H         4.31875477600092    7.88492710275045    5.19306977943314
H        -2.48240030222959    6.75609488517046    7.96960315289811
H        -3.09552331365940    7.31827698970183   10.31872042241000
H         0.78120813423952    9.02762272937143   10.88914036179183
H         1.36511542437624    8.46898471795891    8.57647223520318
H         0.13120293457866    8.52086741634246   13.09739314481650
H        -1.32837250803754    9.21477327064662   13.84482039207663
H        -0.48795187959976   10.10645158111228   12.55280607795681
H        -1.37227675686847    9.11019846744600    5.20054506803555
H        -3.36238723999707   10.38448014713556    4.47508797761591
H        -4.01651063780648   10.33074525262744    2.06639047563309
H        -2.60364123060544    9.00515782853089    0.49186683452814
H        -0.64939383666458    7.78205654595135    1.38116997527974
H        -0.74637252341433    4.24137083636340    6.08996218042918
H        -1.17086757560280    1.81098061010598    5.82022039356512
H         0.19930664572922    0.52566889572188    4.17635046763559
H         1.97481823745324    1.74533054287491    2.91497800177981
H         2.28026951537113    4.16278754096067    3.32221360971239
H        -3.49524880413258    4.30234628670908    2.85682777357182
H        -2.58127697580800    2.91645255854871    2.22071729746928
H        -3.20820125959658    4.12830894071826    1.10270540544682
H         0.64342548106119    5.48125756460985    1.27883743252273

