32
CSD_code = FENTOI | q = 0 | S = 0 | Stoichiometry = C13H9F6NO2Pd | MND = 4
Pd        4.36738003635931    5.88700599464212    2.03021159568132
O         5.35219621482348    4.21211903432184    3.12923976036891
O         2.87326867795674    4.40444586929143    1.74848804240844
N         5.56857729792258    7.08417682226908    1.49849129293413
F         6.87093085098118    2.74557686376059    4.67821384648379
F         6.27560062995621    1.07017449626497    3.46062183762547
F         5.11470264286099    1.60948994112873    5.19040461483077
F         0.76858370742824    3.15439020959202    0.89106924752577
F         2.02192509030899    1.41541552819312    0.66626224394023
F         1.00337373222881    1.77484703306690    2.52725729374295
C         3.16043628403915    7.47613850527009    1.83334688298707
C         1.77389365514746    7.47690906835743    1.89568985169401
H         1.22290701514494    6.54616821783501    1.97524914492750
C         1.08309260633056    8.68150877386920    1.83690499506689
H         0.00441740559163    8.68057525422533    1.88814261409190
C         1.76552856277438    9.87943821184522    1.70951834447958
H         1.21647268217131   10.80815160751117    1.66409979600485
C         3.14924140647377    9.89312343808765    1.63246501722120
H         3.67902039454687   10.82775075319513    1.52436488733372
C         3.84318087114070    8.69611056829868    1.69666460616477
C         5.32908537836302    8.47641706838377    1.55936271987665
H         5.83953456199979    8.81368771247629    2.48035407800440
C         5.98013645308305    9.20543673694044    0.37114093609825
H         7.01455848356408    8.88978296344110    0.27369569757209
H         5.94363175859423   10.28062549156433    0.51674925327155
H         5.44773807742784    8.94903821472469   -0.54052558850600
C         5.81774099059591    2.11609152311309    4.16442284776469
C         4.94610148196916    3.04768651975610    3.28826862448068
C         3.78926965413421    2.45272801858116    2.77570495533171
H         3.59683342319023    1.41169281999765    2.97496729481809
C         2.86748129542386    3.18774245795190    2.02958758964245
C         1.65095867747111    2.38045428204327    1.52036567611595

