100
CSD_code = FENWIH | q = 0 | S = 0 | Stoichiometry = C49H49NTi | MND = 12
Ti       10.84143417245959    6.63662709586099    1.42599986891169
N         9.26365256657748    7.52210842056474    1.25062392796869
C        12.18026600464310    7.55964703154133    3.11505557556278
C        11.77289116232882    8.58116301079370    2.22200214585153
H        11.22151641805613    9.47588858611920    2.48281947595504
C        12.34275824482513    8.30987245269031    0.95510517928190
H        12.31923199314275    8.97982609142153    0.10057167028153
C        13.10922300388208    7.12649795739575    1.06597670714975
H        13.77134324836340    6.72143036298396    0.31063416459943
C        13.00882180801228    6.67292732931756    2.39417816110397
H        13.57349033591559    5.85973117416204    2.82864256355300
C        12.00346979563184    7.50452216895456    4.61367052027391
H        11.98558875193753    6.44608177022838    4.91039735333103
C        13.16440395599067    8.16063394925422    5.34148159743695
C        14.06207858182095    9.00947673838780    4.71262520359627
H        13.96878282707895    9.20508933302330    3.65407127754688
C        15.08582365600183    9.60650188455469    5.42845466749192
H        15.77617895123705   10.26405994899016    4.91852504840538
C        15.23847664394652    9.37493675329601    6.78724347265179
C        14.33488177370803    8.52494065448584    7.41555345969880
H        14.43603798054021    8.33060753928443    8.47413781895787
C        13.31365332386265    7.92804675065996    6.70420176265149
H        12.61787141444106    7.27305998197543    7.21011568984381
C        16.35480782553925   10.00431287365220    7.56459795063884
H        17.11993923474702    9.26089406170695    7.78999012609030
H        15.98911929024668   10.40202941423761    8.50962494277601
H        16.81774799378725   10.80959804759925    6.99950552733261
C        10.71280096894763    8.14663536787993    5.07138723971433
C         9.63794831015442    7.36677352356775    5.47919012785629
H         9.72831110902429    6.28901462827439    5.47862699103899
C         8.45297602794122    7.95013727487701    5.89227217355562
H         7.62829005405701    7.32408695476552    6.20257132373268
C         8.30771566493316    9.33058468095854    5.90794857965912
C         9.38958601306014   10.11049990223148    5.51770511013859
H         9.30244128865497   11.18821245107868    5.53717861990532
C        10.57698025434738    9.52964442514781    5.11270530941128
H        11.41409959643978   10.15643865446399    4.83967446349757
C         7.02775242357752    9.96128040856262    6.36678702639912
H         6.17777462225789    9.32167479467671    6.13858579123332
H         6.88008129883889   10.93099792620331    5.89607383003369
H         7.05331225608373   10.11358537946924    7.44643720213400
C        11.00354070624653    4.45439094760711    1.25789628341751
C        10.15633177848732    4.79550587592106    2.40496974079481
H         9.07391875558404    4.93082524811918    2.35030451389539
C        10.79018013249923    4.23856748331046    3.54138232259435
H        10.38055445101848    4.22208649285907    4.54038309904207
C        11.97535972577175    3.64094883900296    3.14764987025963
H        12.68046016416713    3.14877255177207    3.79682863992362
C        12.12841754280950    3.79967804178797    1.76277268306481
H        12.97556705397757    3.45657194117179    1.19078351841484
C        10.75346719762110    5.12857105808984   -0.02944385748983
C        11.79854413509297    5.01337050692860   -1.09331178598065
C        12.31826737233968    3.76985857917397   -1.44304780649676
H        11.97197906742004    2.88864297618774   -0.92311388711680
C        13.25534888057467    3.64828755849572   -2.45287497485102
H        13.64938796762512    2.67192178407163   -2.69872928790616
C        13.68910176383087    4.75878638971065   -3.16344857756656
C        13.14913330786716    5.99804363476649   -2.83893340993712
H        13.46518682378857    6.87386803334588   -3.38953938505587
C        12.21958123083684    6.12419086133126   -1.82386612124843
H        11.81555136479133    7.10615757979620   -1.58789996866226
C        14.69403993870968    4.63546021248191   -4.26881482906293
H        15.48965705142461    5.36923942237243   -4.14879646287049
H        14.21759796266926    4.81603601715628   -5.23266776258012
H        15.13421088651311    3.64157984107120   -4.28521393426199
C         9.39497306811906    4.94308660883059   -0.61297051674385
C         8.95440108359480    5.70480201572343   -1.70129342828471
H         9.60530492597177    6.45392225838148   -2.13132248128754
C         7.70582159997621    5.50863626502027   -2.25468143852102
H         7.38859544700530    6.12250611490502   -3.08663561648139
C         6.84849631895264    4.52644377498536   -1.77019300875522
C         7.29909707154262    3.72897934350366   -0.72737735600763
H         6.66941794342356    2.93335150747862   -0.35291459719287
C         8.54615950131567    3.92609332747705   -0.16311477024779
H         8.87991934461934    3.26448370606825    0.62471780614067
C         5.49572231032823    4.32737825470751   -2.38481862123029
H         5.59362133279776    3.98392530148621   -3.41474363135861
H         4.94146963388844    5.26535820821068   -2.39975421053334
H         4.92093885394214    3.58855899683255   -1.83113045652392
C         8.42293307919551    7.80531086118030    2.38617206666172
H         8.56189511172432    8.85479725615681    2.71505982207546
H         8.73578204826208    7.15569975350897    3.21828080011611
C         6.94653280773157    7.57876788617095    2.14266153801311
C         5.99207946485025    8.37824754514864    2.75761880054029
H         6.30858976464547    9.18466112634522    3.40413830851304
C         4.64561149871971    8.14566493530749    2.55091766054284
H         3.91211493098162    8.77337074398602    3.03767171748179
C         4.21787457939725    7.11637298485743    1.71934060743734
C         5.17659461589492    6.32358530005281    1.10393851957179
H         4.87139840227012    5.51745933722044    0.45293887016873
C         6.52464259984038    6.54781335447286    1.31593692185638
H         7.26410458825719    5.92622517476367    0.83007615432102
C         2.75397566775971    6.88582408761434    1.49292984888312
H         2.32191149892435    7.71843668871527    0.93777902820017
H         2.22649366078399    6.81128362839959    2.44262472914597
H         2.58756538610345    5.97230544606456    0.92782269038872
C         9.03833950557649    8.45251303458340    0.17399971989987
H         9.75852605151711    8.27581000692259   -0.63120375144273
H         9.14222383196256    9.49596638642676    0.52382345722872
H         8.02522636146175    8.34371914663678   -0.24031345015192

