75
CSD_code = FENYIH | q = 1 | S = 0 | Stoichiometry = C40H31N3Rh(1+) | MND = 7
Rh        1.16915361958480   14.14125334421907   13.54842996641287
N         0.37582381532431   12.28047108049952   12.95416662388818
H        -0.54113550223153   12.59770664439637   12.62040560751208
N        -0.69615332375496   15.39640884873879   12.87907053111123
N         1.71108287487987   15.95231631888926   14.04171642978393
C         0.99389308298353   11.60407705762005   11.78290710476120
H         0.45960735225269   10.65607596328853   11.61653725222525
C         0.82194650700613   12.44227415391873   10.54300106260412
C         1.29364133601347   13.75977404874190   10.49663048915077
C         2.08090132948832   14.36609940972284   11.56560463872099
H         2.29000094508216   15.42151810935817   11.38166715963384
C         3.01132877713233   13.70263103239452   12.38700326863280
H         3.83454357168658   14.31890702199581   12.74549609599679
C         3.35258909897197   12.28576806929658   12.35827048025568
C         2.44232124349518   11.27758966148120   12.02145075244492
C         2.87235095186013    9.96182282151383   11.93058956943949
H         2.16957836772367    9.19143963458520   11.64774658399707
C         4.18106748924434    9.61971496573862   12.21142550356448
H         4.49667189485137    8.59057850093438   12.14467360836844
C         5.07740195688994   10.60371210121207   12.59682273634183
H         6.09694134000877   10.34425010115489   12.83590753616404
C         4.66614669594362   11.91741881043827   12.66717980342683
H         5.37458922223232   12.68357596631495   12.94696958966238
C         1.02166678035786   14.52408617969777    9.35737736205578
H         1.37018397392871   15.54600249842288    9.31684925764391
C         0.34191244347372   13.99107536581881    8.28239149164847
H         0.15200844597774   14.59720446434171    7.41018449068445
C        -0.08993238982564   12.67442296614295    8.32212138858673
H        -0.61757449999487   12.24791305040444    7.48367067864796
C         0.14550360532587   11.91332106164679    9.45173634336885
H        -0.20586218612058   10.89193511721369    9.48849059263173
C         0.06773557729691   11.29239969312003   14.02275068096627
H        -0.31727226611893   10.37963083688419   13.54309621373942
C         1.28781885485206   10.91402466156101   14.81646072901401
C         2.04919549484383   11.89620407955128   15.45991736939621
C         1.67833772818923   13.30611604597869   15.49027591256263
H         2.43389851425440   13.92127996509530   15.97997258975790
C         0.36471300650621   13.83677838931609   15.52329862548746
H         0.26619245094448   14.79173851311497   16.04522624397105
C        -0.86982303037737   13.05723634764914   15.56705125193203
C        -1.01842671802886   11.82385493377328   14.92157719147176
C        -2.19567721386780   11.10385364380918   15.07186147920357
H        -2.29834177422640   10.14539704883131   14.58338773229075
C        -3.23934023133586   11.59668636549815   15.83275529281328
H        -4.14698077166842   11.02410775500643   15.94029072156923
C        -3.11629081624160   12.83579453894710   16.44137175836385
H        -3.93049104940784   13.23552050537469   17.02581136051671
C        -1.94681456802445   13.55459894070502   16.30702168084177
H        -1.84776349334254   14.51273628798990   16.79725180033810
C         3.22214021041923   11.50519501053229   16.11331336437888
H         3.82762636535360   12.25627722954713   16.59964029065715
C         3.60441516904979   10.18189194397979   16.16807228389056
H         4.51154497152159    9.90336584186813   16.68144432781141
C         2.81794895203817    9.21116007108480   15.56870390024663
H         3.10526141801107    8.17259170172762   15.61373805709029
C         1.66959927063317    9.58281645161378   14.89637586890526
H         1.06584879110448    8.82689273867019   14.41538246499498
C        -1.89011358852479   15.03985624580793   12.42976378165625
H        -1.95611251974198   14.07762868527052   11.93771024056215
C        -3.01302498607820   15.84198681959020   12.54075617600922
H        -3.96217597609913   15.50946752418690   12.15406915513182
C        -2.88109395691947   17.07137113361152   13.16766178338114
H        -3.73404520200730   17.71929957689788   13.29667670672211
C        -1.63376413005316   17.45874720089735   13.62323718423830
H        -1.51829857444519   18.40454366560308   14.12605941040255
C        -0.54643475710266   16.60113538321926   13.45020525339247
C         0.81327662139871   16.95301113918172   13.89058799014858
C         1.17004683819872   18.27911761306454   14.13393605335901
H         0.45790771730661   19.06821462583694   13.95957099900957
C         2.44141768895910   18.58919406615799   14.57774881025175
H         2.72466670846808   19.61220238152093   14.76579640424994
C         3.33715017568214   17.54923500002133   14.77675338992742
H         4.33565633881489   17.73180402692894   15.13862366266209
C         2.93091360958698   16.26039045157279   14.49155895988394
H         3.61797433038265   15.43720054925886   14.63484084743158

