48
CSD_code = FENZON | q = 0 | S = 0 | Stoichiometry = C12H25Cl3O7Ti | MND = 6
Ti        4.96113488744603    3.76863236410957   14.53355945160346
Cl        6.79491569366074    5.06814652681385   14.24790564379546
Cl        3.74646251751614    4.96306215914250   13.10684186915764
Cl        4.24763118998149    5.06908904653464   16.20687714495985
O         5.52095363550000    2.58898562140075   13.19149502403524
O         6.14497233648700    2.62918833266797   15.70897046815227
O         4.28916996907359    2.40602166825949   17.52856931091478
O         1.57454396237551    2.76372743859122   16.75482178806270
O         1.21584160513889    3.12751132149631   13.89756078936916
O         2.89010675330468    1.56534521318780   12.35808680982744
O         3.58071076690031    2.35990846166112   14.91304138540028
C         6.17286352906049    1.39325910959960   13.72042842582734
C         7.02333796749960    1.86720426036172   14.87864350136319
C         6.53146411791140    2.81215505609136   17.05905048885881
C         5.56988680179715    1.99927925537727   17.93659696837660
C         3.21136730824485    2.13177520574581   18.38837961717946
C         2.09954039843161    3.11305685535491   18.02496556284315
C         0.84971676328104    3.82105015921631   16.14334614659083
C         0.20886967440719    3.29536157265988   14.86464081706827
C         0.76867658937965    2.56771292280219   12.68713753107226
C         1.97134385460104    2.46653624503811   11.75574324583192
C         4.09236543605713    1.34510720887901   11.65295386804567
C         5.14367502479463    2.45435901199797   11.84033108809968
H         6.82850831356848    0.97320143060005   12.94148650407836
H         7.41689511636416    0.99708056188862   15.41990248183881
H         7.86736363759781    2.53352297321911   14.59241655642300
H         6.41351388283703    3.87808737349675   17.29517649904767
H         7.57152096724783    2.50913387473464   17.21464123352304
H         5.74188187762659    2.21933483272842   19.00005681455991
H         5.70655277024015    0.91959292112840   17.76393968118369
H         2.86401445685779    1.09565460760341   18.26096170684823
H         3.49823921856358    2.28747554381046   19.43760093261891
H         2.53575434501777    4.11780076299166   17.97913560833856
H         1.30015463190735    3.08401334975164   18.77799389191652
H         0.06708703928614    4.17762531446534   16.82503648712454
H         1.53072192723212    4.64845058206950   15.90007463790186
H        -0.54666238100136    4.01251259842697   14.51186657055685
H        -0.28527067048278    2.33310493812826   15.07013494476469
H         0.34635620479712    1.56670853363317   12.86783609872374
H        -0.00217995563395    3.20015610180959   12.22448977990031
H         2.41470276734263    3.46240918549342   11.65096787836188
H         1.65865239887020    2.08295138301662   10.77533592472807
H         4.49264451649633    0.41760302427075   12.07346390590010
H         3.89193900118140    1.21553371324247   10.58169269853380
H         4.75138163102735    3.42576760665883   11.51971247319500
H         6.02647959093907    2.19736506081764   11.23644639267464
H         3.09349873319193    2.06079429195239   14.11537298291754
H         2.91449919607715    2.49284441707361   15.62701036790850

