69
CSD_code = FEPDEK | q = 0 | S = 0 | Stoichiometry = C29H36ClN2Rh | MND = 6
Rh       21.11356424670087   10.84799207449007    6.72295320511343
Cl       20.09967532502738   12.74368394849111    5.97421033500922
N        23.42103910433960   11.75719405816076    5.13850448430234
N        22.11413071164361   10.70824935427932    3.79768916232790
C        22.29628772169673   11.00444185088929    5.10163330082675
C        23.92991561383524   11.92832253474108    3.87813577545599
H        24.82182839443436   12.49162107436221    3.69409582204017
C        23.10699658541714   11.26753904356171    3.03330405557476
H        23.14171038970458   11.14461495433592    1.97014313895892
C        24.01803495269868   12.21137596529514    6.34922521317620
C        24.91697304103714   11.37676121083262    7.01659132128284
C        25.40608595857340   11.77861071130712    8.25147914041045
H        26.08490577477563   11.12693911340399    8.78333667184439
C        25.04545507996712   12.99499893235871    8.81003254700797
C        24.24114139700118   13.85204112109944    8.07228350104412
H        24.00465868782414   14.82825848071453    8.47073332802387
C        23.73326309592707   13.49332153275791    6.83233610749933
C        25.43336117212311   10.11180386982890    6.39347042003143
H        24.74574973197336    9.70629757249837    5.65576432119023
H        25.62830858294291    9.35655979672502    7.15164641090690
H        26.37701405239883   10.32422929640051    5.88733828505097
C        25.56122461846387   13.40918566895725   10.15496467882084
H        25.89819878919488   12.54731695402294   10.72576092360114
H        24.78884420492421   13.92721999462635   10.71954953458089
H        26.40376049478863   14.09146829226519   10.03861688859495
C        22.94363735437803   14.46407818079938    6.01927892489712
H        22.94955528132912   15.44629011777215    6.48325869220719
H        21.90928852842615   14.12861950334373    5.92546921261555
H        23.35288633844447   14.54539142039978    5.01315580578992
C        21.10440111977071    9.84581290288586    3.28874479919907
C        21.34935884098066    8.47279046651873    3.26105726151931
C        20.34863671097335    7.62899845094756    2.80190609143846
H        20.52606203167318    6.56291576067404    2.78751525152894
C        19.13316617164681    8.12714212023894    2.35759729486381
C        18.94144706352982    9.50142975243086    2.34063569290534
H        18.00991755567780    9.90012770636717    1.96551892655969
C        19.91534310906525   10.38090417699829    2.78974742183069
C        22.68717524182728    7.91784164376909    3.65680988186532
H        22.61226346909958    6.85621243746992    3.87844184484224
H        23.09121886770804    8.42986302648924    4.52767928384808
H        23.39545217573080    8.04405540553597    2.83605055957536
C        18.04498369701944    7.20682730011586    1.89475267881934
H        17.59207597222274    7.57741524962164    0.97733654639238
H        17.26254573739644    7.14693229625683    2.65131932840168
H        18.42822417108576    6.20473134036699    1.71927088169274
C        19.71392929533510   11.85789559024986    2.71951730968902
H        18.76683823274979   12.09547943849739    2.24370148732407
H        20.51902003728845   12.33069040944579    2.15777441837144
H        19.71997974867092   12.28789760511823    3.72253854758782
C        22.19569878368234    9.29350995748026    7.69577121219044
H        23.18962211332977    9.18637707436108    7.27573591122543
C        21.14320363573514    8.75251588172199    6.95317292734063
H        21.38922327778591    8.26241184466464    6.01299051649619
C        19.83538326890329    8.25321778294730    7.52291453858889
H        19.99021522574998    7.26465499850053    7.97129469393185
H        19.13886499747992    8.12524321501513    6.68917312621721
C        19.21268226345342    9.21311806404095    8.55024785487175
H        18.12934541149246    9.07407593905340    8.55279038070328
H        19.56954849888967    8.98686448873968    9.55589237734784
C        19.52623980881643   10.65236446212145    8.21645540002143
H        18.67904583316735   11.22670560814846    7.84411297657752
C        20.59400133808692   11.34986517135606    8.74063603075880
H        20.52762142943757   12.43929948317666    8.77230242879635
C        21.64491352244731   10.78345784755615    9.66653141557615
H        21.23148059695410   10.70422214565424   10.67837740171711
H        22.47417769277640   11.49568611928890    9.70690120511257
C        22.18980616075730    9.41990758936471    9.20488716823776
H        23.21241113275060    9.31286855955533    9.57397468362424
H        21.60598052886719    8.60484405853157    9.63546103422232

