80
CSD_code = FEPFOW | q = 0 | S = 0 | Stoichiometry = C27H47N3Si2Zr | MND = 5
Zr       14.74097248488844    2.01633693798966   11.88031736220594
N        16.42363219729815    0.89997002856839   11.42214299797354
N        14.01108113575475   -0.23429826815350   12.61788319236364
N        13.07120939729025    1.76632675213177   10.65183413790500
Si       18.05376042321929    1.22410253658188   11.79591971515071
Si       12.83756596204887    1.57917190128492    8.97378451094689
C        16.12955329553071   -0.08350186921221   10.39631079800784
C        15.56447062231571   -1.38753522837508   10.98365146325589
C        14.14812484763281   -1.21735206058031   11.53117005666410
C        12.61023088650018   -0.22209051791531   13.07252801045900
C        11.59805990566762    0.30171523155180   12.05060090966901
C        11.91625460082112    1.71682031470895   11.52883986653226
C        19.01926919293090    2.08639166158612   10.36996117918613
C        18.09081040942214    2.34290196283077   13.34298414512850
C        19.07318601269507   -0.35718732747775   12.21363517524694
C        14.87002243917182   -0.63476264548383   13.73905347358330
C        12.61703144063746   -0.22157142837104    8.28924977241325
C        14.34344916682408    2.29056423663318    8.02468368815153
C        11.25923719773168    2.47136516565292    8.33633977623280
C        14.75329992969942    2.72755157696436   14.05815437499295
C        13.43065660666617    2.78431723848425   14.67115566560174
C        12.48674240524317    3.74431699043940   14.25451250429743
C        11.21632515037752    3.78608867262541   14.78866834978364
C        10.82739881882485    2.87912472289799   15.76533664961985
C        11.74880944187817    1.95390297556473   16.22567404017817
C        13.02614876583299    1.91314399151692   15.69888251193878
C        15.54847676464983    3.93753908939486   10.99804635581286
C        14.61356603080131    4.97217214322834   11.43770347143566
C        14.94847300454686    5.90808448949055   12.43142775754787
C        14.04891049733842    6.87077799509574   12.84712179694160
C        12.78615724487684    6.94528552114497   12.28058356669792
C        12.43666407860315    6.04074890739514   11.28673186704364
C        13.32880770415012    5.07324237092194   10.87114699743511
H        17.02915929669715   -0.34349716742314    9.81964037200290
H        15.38695759880561    0.31467849611518    9.68550485143247
H        16.24940505702779   -1.75644400588040   11.74877025989627
H        15.51767587113382   -2.14056369760004   10.19224136915408
H        13.78874532863770   -2.20164752733167   11.88556049005423
H        13.51163270286723   -0.88961509495455   10.70719619744273
H        12.54741891797831    0.41647788437933   13.96116863697347
H        12.30867164808547   -1.24409810994164   13.36859562673683
H        10.62580715004136    0.32625546113807   12.54949823296333
H        11.51162306465861   -0.37180014934184   11.19593384540169
H        12.07485291862721    2.38203418776406   12.39662972167658
H        11.01345036482352    2.07607349785709   11.01298425963425
H        20.00079867607757    2.42304660042959   10.68786754929506
H        18.47829724113516    2.95076634261433    9.99424226846568
H        19.16600463174088    1.40816043102008    9.53415568081320
H        19.09442579992104    2.72396367216397   13.49570268628494
H        17.81533986416614    1.80039785449723   14.24183040857927
H        17.42385166821823    3.19408558268825   13.23906197366479
H        20.11966748495497   -0.12074634689860   12.37431220117546
H        18.71177394622593   -0.85332225310351   13.11023291702297
H        19.02553098478069   -1.07559538308719   11.40070492260426
H        14.61118235229729   -0.06165415398077   14.62784347993484
H        15.91325244864137   -0.43572969034313   13.48196942583084
H        14.74177078872867   -1.70295275212369   13.97200332319025
H        12.34273506030988   -0.18630987020776    7.23910793480289
H        13.52671997565462   -0.81275004738730    8.35893031250187
H        11.82700525782384   -0.76616561719035    8.80067878004224
H        14.40884992550315    1.82685742319702    7.04586824688980
H        15.28726744152570    2.11227743627028    8.53680572528785
H        14.24314533120667    3.35920578957259    7.86340481044024
H        11.28499287009039    2.59166731740449    7.25834314375360
H        11.14647034321585    3.45931008428656    8.77248384377408
H        10.36481226730469    1.90421360243778    8.57601647481528
H        15.45202964807963    2.15891334593067   14.68830742108549
H        15.13776198523703    3.75048348190648   13.93142122424856
H        12.77973305746709    4.47764756478129   13.51327145507639
H        10.52001293575596    4.53796207379806   14.44528936139078
H         9.83097278775644    2.91171635640581   16.17904232374450
H        11.47481319737641    1.26579212639659   17.01385307145217
H        13.74200744613336    1.21394256489350   16.11718228671468
H        16.57719327167518    4.17665934841649   11.29639004631925
H        15.50213592320362    3.80517837224786    9.91183381094911
H        15.94144029211706    5.88424688387122   12.86650896277820
H        14.33644638483132    7.57721808780684   13.61338448401003
H        12.08631545428566    7.70128064653631   12.60346489072717
H        11.45706716343418    6.09825373794154   10.83195977375886
H        13.05191811161503    4.37766154270815   10.08666477475633

