77
CSD_code = FEPHUD | q = 1 | S = 0 | Stoichiometry = C32H38IrO2P2S2(1+) | MND = 6
Ir       -0.45239025648157    3.29451894656861    3.14836523015612
S        -1.71635123160247    2.81494959168384    5.32707230918021
S         0.22662288737807    0.91459124936223    2.92217997295154
P        -1.11194005956069    5.49224898920336    3.48484747331733
P        -2.33532152681620    2.66991600680869    1.93553422163137
O         1.43885245331153    3.72941224263929    3.45345901113428
O         1.11854837647624    3.85852109417892    2.14423247809791
C        -0.04311345498934    6.76884538030084    4.21896374986573
C         1.19879248984094    6.47688565365568    4.76915413285561
C         1.94305677798056    7.48692272774408    5.35684346094057
C         1.45407706297986    8.78121564985493    5.39652679160081
C         0.21837774065737    9.07502646020441    4.83847832814399
C        -0.53114583680403    8.07571498439152    4.24944507229814
C        -1.79444277042063    6.32057705224423    2.02776931727549
C        -3.09120484677467    6.81071419781635    1.93050039283396
C        -3.50169970950795    7.42534918944930    0.75914044469124
C        -2.63098760551343    7.54777478027564   -0.31081073761708
C        -1.33422305738875    7.06646703057760   -0.21174077540643
C        -0.91483076892027    6.45745612316449    0.95483598346923
C        -2.49256669475306    5.39481578617221    4.71882435506900
C        -2.06017214537663    4.52927176512993    5.88940911129134
C        -0.50191714986400    2.24089719115775    6.56992195801153
C         0.83056118618002    2.95520041045816    6.53898549204057
C        -4.04803293426166    3.14578295921923    2.30884276893805
C        -4.68936892057169    4.11362444971969    1.53985256768565
C        -5.96705521335529    4.52804854766956    1.87126104801456
C        -6.60855150469099    3.99368175292838    2.97666420919586
C        -5.96577448308685    3.04623901904618    3.75827737124922
C        -4.68848225518535    2.62782052196588    3.43313491518232
C        -2.19733429392643    2.89105049597703    0.13746366410582
C        -1.03136272157695    3.43349408934285   -0.39125090829359
C        -0.88929300285769    3.56562289289001   -1.76190129269016
C        -1.90647055200935    3.15518665458555   -2.60696986218710
C        -3.06706075664065    2.60491590526671   -2.08289423233324
C        -3.21553520733941    2.46875632386834   -0.71587400087115
C        -2.38197846426010    0.81669034912405    2.03012181083086
C        -0.99570510099449    0.29124346073054    1.70209962945102
C         1.76171252498528    0.81871497323201    1.92517407407685
C         2.97091340989098    0.96100823144865    2.82787536071639
H         1.58953153602319    5.47269971786650    4.70320248520057
H         2.91002956302481    7.26013907244864    5.77914977173165
H         2.03650027272424    9.56662068621229    5.85312411453680
H        -0.15845024884500   10.08636073681198    4.85868573013178
H        -1.48833323190853    8.30632207862763    3.80178614382694
H        -3.78041242122967    6.72139002060785    2.75686173387411
H        -4.50708569610006    7.81158812599257    0.68429515060503
H        -2.96184759329874    8.02473819918805   -1.22059079694535
H        -0.65345940925407    7.17054610423898   -1.04229751387091
H         0.09343211991857    6.07867091294945    1.05755365971365
H        -2.73632271525402    6.40036831048852    5.07198975714495
H        -3.37166312651458    4.95924596457390    4.23658063895725
H        -2.84474767852644    4.46186394156941    6.64428749273914
H        -1.14737406246003    4.91986539515691    6.33884027840437
H        -0.99635242501191    2.33635123806562    7.53675711549920
H        -0.38067102244973    1.18333827642194    6.33524458625170
H         1.52609766031663    2.43625834922484    7.19425706302470
H         1.24690011669374    2.95908707771599    5.53369285486695
H         0.74751322145836    3.98248235890983    6.88669118687872
H        -4.18872385487779    4.53408489873606    0.67963612590899
H        -6.46230344908483    5.26902229493300    1.26253165185567
H        -7.60659046982508    4.31524778982508    3.23106041498226
H        -6.46159042106818    2.63297666707462    4.62333930578831
H        -4.18692961459625    1.90094379941239    4.05555627761696
H        -0.23809205280515    3.74628662739776    0.27423516399299
H         0.01737233692534    3.98655716552615   -2.16838010917026
H        -1.79707430197158    3.25929673084105   -3.67548385103325
H        -3.85734734017641    2.28032618569169   -2.74264156967163
H        -4.12352552561153    2.04429515837685   -0.30898152960098
H        -2.66927217769460    0.51398313515705    3.04046581309405
H        -3.11802301337117    0.42503494647346    1.32190975479934
H        -0.67715727934526    0.62560856268182    0.71262933656617
H        -0.96034263343429   -0.79815766494064    1.74959549990874
H         1.73552428866931   -0.15554543610008    1.43634231631018
H         1.72888778748561    1.62016005539785    1.18774155685129
H         3.87681672152927    0.87038781936428    2.23371879206268
H         2.96670865155304    1.93910711154740    3.30365463096127
H         2.97707510423873    0.19077445547020    3.59594406930101

