37
CSD_code = FEPKIX | q = 0 | S = 0 | Stoichiometry = C14H12I2O8Zn | MND = 6
Zn       -0.79683718288810    4.13066260392628    3.80095119636783
C         3.63461552510318    0.91099004490566    1.44882367852181
C         2.70416046392237    1.56634493955808    2.22001890585153
H         2.65158420599530    1.43291477048807    3.28937224022395
C         1.79006946449967    2.43171963254755    1.61853535984157
C         0.80531714883463    3.12728962090595    2.46347582709785
C         1.81748474356182    2.62882201103862    0.22604610095225
C         2.77679525586689    1.94750486816756   -0.52973677405909
H         2.79190750266813    2.10444646985314   -1.59643712593969
C         3.67683409911023    1.09780873845197    0.07282274084331
H         4.41075722152714    0.57921382408334   -0.52474855375698
I         5.02251583312077   -0.39374411897171    2.36423290088878
O        -0.03833342837473    3.92005896134705    1.94297949031050
O         0.79920001832962    2.96057949808932    3.70425354857120
O        -2.07115226827056    5.72499231702418    3.04851989728512
H        -2.83429889341036    5.26339425909880    2.68280953990974
H        -1.60300234568647    6.11591968704757    2.30271830361921
O         0.96486602192098    3.44312286494357   -0.39864962484610
H         0.36164691709503    3.81856358262469    0.28655818498566
C        -5.22905627168923    0.91503438287787    6.15838798482665
C        -4.30062704982521    1.57140743592166    5.38563124833156
H        -4.25295511297919    1.44188549669861    4.31556092193936
C        -3.38220503052012    2.43271070747131    5.98639290605685
C        -2.39917615655692    3.12886327542654    5.13992250726469
C        -3.40318134249345    2.62464453967022    7.37972788862150
C        -4.36030047964103    1.94205800952479    8.13714127896353
H        -4.37031036277478    2.09480879597237    9.20450684570114
C        -5.26467317185719    1.09648819128616    7.53530167374435
H        -5.99691190261105    0.57696216269942    8.13411884813324
I        -6.62328496005231   -0.38322099599453    5.24338344464911
O        -1.55395033178898    3.92057496199791    5.65944206619302
O        -2.39686764011434    2.96463802518332    3.89878267265479
O         0.47715052490996    5.72479362527490    4.55093834110233
H         1.23251816661503    5.26336140136289    4.93273074807278
H         0.00338768899740    6.13135537612902    5.28469070635520
O        -2.54637761213058    3.43498555968380    8.00380742481621
H        -1.94550925841479    3.81214447368286    7.31748665590668

