37
CSD_code = FEPKET | q = 0 | S = 0 | Stoichiometry = C14H12Br2O8Zn | MND = 6
Zn       -0.77615757114314    4.12919608505680    3.84007198389675
C         3.65493779611166    0.89151736965496    1.51073122741788
Br        4.90442838510766   -0.27629185607797    2.34234092226129
C         2.72651732830744    1.55427734649187    2.28054112022062
H         2.68100710745604    1.42585931051861    3.35085839262244
C         1.81340905802209    2.41484582342613    1.67159885993967
C         0.82892055662712    3.11883113528785    2.51049831632938
C         1.84005205694863    2.59881796409318    0.27689877463687
C         2.79696018690589    1.90942578115941   -0.47579340298371
H         2.80904729730410    2.05754280356648   -1.54365881357117
C         3.69718972709462    1.06408204655740    0.13151772710269
H         4.43209857795377    0.53579670825233   -0.45631389723719
O        -0.01069544323185    3.91157730484037    1.98401665952580
O         0.82001753125424    2.95873283682302    3.75202444851754
O        -2.04459662879679    5.72208439671500    3.07982875486552
H        -2.80466389066966    5.26041300290293    2.70779957867547
H        -1.57170935022004    6.11524037646931    2.33818181369068
O         0.98792072409212    3.40857869513696   -0.35385198498768
H         0.38639027456632    3.79189415252060    0.32861530178208
C        -5.20698410512727    0.89296531110575    6.17207329600308
Br       -6.45957752706918   -0.27197616249800    5.34109487104643
C        -4.27956255006091    1.55615793502041    5.40142993135950
H        -4.23658501249477    1.42956350618328    4.33078909306661
C        -3.36431771028304    2.41481446879793    6.00988721223622
C        -2.38115394442536    3.11960715760171    5.17013316605037
C        -3.38764044342931    2.59615568807187    7.40500537727691
C        -4.34355506731260    1.90628821149238    8.15855189244568
H        -4.35306392578904    2.05244383061523    9.22671493608084
C        -5.24605590920453    1.06306035834551    7.55169203207496
H        -5.98022745676511    0.53446493777170    8.14016658600822
O        -1.54027379280687    3.91135355421920    5.69617827718099
O        -2.37396589293232    2.96067514897538    3.92844039028600
O         0.49468900680717    5.72090912620768    4.59781355247396
H         1.25083316707696    5.25803511367138    4.97628600002282
H         0.02111467555983    6.12280826219041    5.33427794133022
O        -2.53332840342171    3.40383960836071    8.03542188227196
H        -1.93321883201307    3.78831266047241    7.35233778008103

