29
CSD_code = FEPSID | q = 0 | S = 0 | Stoichiometry = C12H12O4W | MND = 8
W         8.25325215007899   -6.67621023497976   -7.81156259918913
O         7.16597078326934   -9.02149804543336   -6.06821837028467
O        10.43279093449220   -8.68410189852597   -8.78077569025338
O         6.34959767412505   -7.71311760458335  -10.06842170390458
O        10.23013928593586   -5.92798652326511   -5.50409613928432
C         7.55150200108753   -8.14516790957892   -6.69734072310118
C         9.63860462982078   -7.93147678252155   -8.44136097250371
C         7.04786270300084   -7.32246511333210   -9.25576232846267
C         9.49881381398451   -6.18892401602490   -6.33935614373657
C         7.12728108637654   -4.98791338879678   -6.62556894546583
H         6.83288192749301   -5.40487608691886   -5.66200604612564
C         6.34254351093723   -5.28261856232877   -7.71965801999456
H         5.48011048317121   -5.92771271526751   -7.55515715935464
C         9.31222505884829   -4.67713626185243   -8.50657729602980
H        10.38464349224561   -4.86860685540441   -8.52243399053377
C         8.57182097431177   -5.14854671575379   -9.56926758789752
H         9.10210611236373   -5.67127530600440  -10.36584527506712
C         7.26892196558390   -4.52351615008731  -10.01177760715149
H         6.84185999952222   -5.14433375320605  -10.80250108952068
H         7.48921972378857   -3.54948047834466  -10.46672674790954
C         6.21843440026805   -4.33636131858974   -8.89637131730881
H         6.26361478936283   -3.31283469297809   -8.51414224424315
H         5.22795828187351   -4.46349055925117   -9.33915221029600
C         8.89215495719423   -3.45535503219745   -7.71521544652831
H         9.79081781355715   -2.96242640480399   -7.33747936713190
H         8.41386367802829   -2.75360441278494   -8.40407644715149
C         7.95757221125462   -3.72973519274671   -6.51774415900842
H         7.27892470579188   -2.87728172627398   -6.38728932640728
H         8.55581085223115   -3.79074625816370   -5.60591504615385

