90
CSD_code = FEPWUV | q = 0 | S = 0 | Stoichiometry = C40H28F6IrN3O9S3 | MND = 6
F         5.33880681307183   11.12230723676412   -1.18020147757837
S         3.89501657315951   10.43485363055446    0.91393372037557
N         9.02319672418268   10.68072718209237    3.11121095133675
Ir        9.39903877734285    9.23183790636936    4.50199967348743
S         9.53700879866104   10.17589788296538   10.92240408534665
F         3.52120540011226   12.26116278564110   -0.97414011483124
C        10.07943255825487   11.44522702514070    2.87470858786683
O         9.80908543074895   12.53017757590741    2.13369989402181
F         3.44344350750699   10.23005287693992   -1.70199756036305
F        11.33596405838578   10.71758835496293   12.82272986603251
C         8.47487251921304   12.48018040418888    1.89735985749589
F        10.02101924329476    9.07268965409121   13.29233262336546
C         7.67167637739825   13.36538485612549    1.20470333270219
H         8.07705914289140   14.25006570498850    0.74334983512771
C         6.32360804999968   13.06322593194795    1.13486463385898
H         5.64200899874665   13.71917081839143    0.61813154131972
F        11.59114493290696    8.81198226748880   11.84099109123390
C         5.81594734230661   11.91774867742400    1.75222385970413
O         4.43904784711114   11.70209196089254    1.66667615896262
O         4.77740737882373    9.32585078419633    1.01965242685923
C         6.61018542532169   11.02318110660557    2.44288774101427
H         6.19473654603708   10.14870779134816    2.90558380823864
C         7.96584963258112   11.31585911648851    2.51340492210279
O         2.52039539667833   10.29290318607918    1.20073693659232
C        11.34632781549881   11.08580502886396    3.42165355327830
C        11.28007721096889    9.95307373001171    4.26373241720615
C        12.47356434068775    9.55749187223527    4.85697770281864
H        12.49738661466377    8.70205178159770    5.51665427915356
C        13.65501015036235   10.24346041792007    4.62544266958054
H        14.56510942221129    9.91210884048067    5.10499016388182
C        13.69030443741449   11.35439220604289    3.79052014133401
H        14.61996811850580   11.87754458278995    3.62500439229520
C        12.53204558383023   11.78464874453472    3.18324737011199
H        12.52277935075512   12.64826302858818    2.53510669360733
C         4.04923769340946   11.04922968519628   -0.85748487533968
N         9.92462801313020    7.86356643415730    5.88761220924289
C        10.47779906159863    6.75807332762321    5.40567532772318
O        10.81257976737382    5.86575717220704    6.35233164298870
C        10.43882229320972    6.43478115949978    7.52966031549794
C        10.53169659429507    5.94264409945238    8.81782814149895
H        10.96325976882023    4.97707960362331    9.02171766644913
C        10.04526422011770    6.74731195388196    9.83347134266328
H        10.08437743132162    6.41376852393675   10.85740254761358
C         9.48136141581480    7.99445532003214    9.55146462470302
O         8.96592564120987    8.73410275153866   10.61217094120151
O         8.51864694595290   10.96836469426749   11.49697095503243
C         9.39168742756122    8.50094021497399    8.27006835797257
H         8.96837506820593    9.47155884865981    8.08237597898007
O        10.36140659950745   10.66197599038961    9.87865626908300
C         9.87896626012553    7.69901290968385    7.24764978716691
C        10.57908901471488    6.61247575423466    3.98798153422875
C        10.02796581577092    7.72363146847357    3.29549541577091
C        10.02260393120301    7.62880278889174    1.90553158366192
H         9.61315789857733    8.43759485681994    1.31602044528394
C        10.52437595797316    6.51507002329612    1.25217243857008
H        10.49795387663184    6.47332683908984    0.17251291539703
C        11.06457689535983    5.44764012859549    1.96136396369241
H        11.45498820368091    4.59050246765908    1.43404983618216
C        11.09380916574804    5.48955784475348    3.33754521028624
H        11.49981669937625    4.67380841795758    3.91696159682243
C        10.69501191058046    9.67322288935445   12.32014587920913
N         7.29152825831763    8.63029888408382    4.75718548128025
C         6.44899488206719    9.24573108885203    5.51543914877712
S         4.74868139314953    8.78035326028644    5.25864499362780
C         5.21517449353508    7.71227239441623    3.87118739128018
H         4.67954314379345    6.77191115285447    3.96908905041920
H         4.91161555092258    8.18950811614826    2.93903837254604
C         6.73752259358039    7.54347954740079    3.97050005524896
H         7.17673028848751    7.58689215386836    2.96745230713771
C         6.70057082653876   10.23221859936227    6.52179215587635
C         7.94291623105949   10.93807038516360    6.63682455676523
O         8.93738968573689   10.81442594034598    5.84869244172451
C         8.05967131982278   11.86399886530777    7.71404349310141
H         9.00582106652610   12.37674593435929    7.80230470478874
C         7.05503062942585   12.07214549708809    8.61497876051333
H         7.19896500440926   12.76022344580148    9.43440995026745
C         5.84238230383694   11.38779590967697    8.48465083962507
H         5.04657069885443   11.55160357898621    9.19380604789370
C         5.68035846065507   10.50437446054507    7.45191981798561
H         4.74612904359824    9.96807066185896    7.35327755468471
C         7.14353746431695    6.18560109223103    4.59302625468481
H         8.23122609069881    6.20599282670045    4.68062924256488
C         6.78868794862837    5.02962096665752    3.66139972174794
H         7.17110711896490    4.09743960456431    4.07061125135462
H         7.23709332103045    5.18350709413718    2.68260930383868
H         5.71365663916624    4.92655793386893    3.53660548124783
C         6.56153941984634    5.97975634100299    5.98977612485545
H         6.95227977549930    5.05979865672009    6.42026222924970
H         5.47694559667468    5.90570496006926    5.96496083178958
H         6.83671665993531    6.80282952865536    6.64755460592619

