55
CSD_code = FEQCIO | q = 0 | S = 0 | Stoichiometry = C20H30Cl2NPTi | MND = 8
Ti        3.98816758769134    8.12588732126932    0.93095509640365
Cl        4.15570500641019    8.79775457479659   -1.15115556358122
Cl        6.10850194885853    8.48820102679707    1.41397704428157
P         2.91979935258858   10.82074731447277    2.48200761053940
N         3.27161588937410    9.49305018349776    1.75097345268668
C         2.77507305018636    6.28991607219222    0.16890006141726
H         2.19232474661074    6.25333686261596   -0.74278443223025
C         4.10716428707156    5.85288314544960    0.31345644826239
H         4.72893906646819    5.44612670002543   -0.47446779520348
C         4.44769879870823    5.93143276998121    1.67435132320198
H         5.37494421443156    5.59278436192329    2.12050432711485
C         3.33145942442170    6.43464018025914    2.37967969470910
H         3.23957241022549    6.49130124404221    3.45838997661191
C         2.28811341875060    6.64757673169825    1.44562811628535
H         1.26349461606296    6.90783883597084    1.68288741395749
C         4.12166779286201   12.22242365023481    2.05078939033624
C         5.47120114713883   11.91069544156142    2.69009242221526
H         5.45462861977676   12.08920565695397    3.76278750503057
H         6.24075449906617   12.54930902007903    2.25823998534639
H         5.74214481948028   10.87121490957207    2.49697117680077
C         3.63579634380560   13.60841038319876    2.46316790364255
H         2.67736445945506   13.85330128567367    2.01146695950580
H         4.35992060072736   14.35084018842723    2.12908079954086
H         3.54001827418360   13.69566504105039    3.54136114739912
C         4.27064187098407   12.13898102676288    0.53200075502528
H         3.33576497672043   12.37077508163019    0.02271069516252
H         4.58680966557839   11.13052642864185    0.24541045162085
H         5.02362931539350   12.84774987904413    0.19056998378145
C         2.79286480357845   10.44798307412577    4.33666057067942
C         4.03962846213341    9.65474684769805    4.72710144092837
H         4.90080742853867   10.30076780686975    4.86987939083992
H         4.27905065137036    8.93040824184084    3.93958286726035
H         3.86636765508765    9.11764829959766    5.65887892327521
C         2.61560803715932   11.67388743671617    5.22301813086404
H         3.52660357883051   12.26527433229440    5.26628274791479
H         2.37657690988151   11.35644686233565    6.23779704120961
H         1.80432584587010   12.30612707849191    4.86692128639602
C         1.57441550542382    9.53002565023318    4.44959657238445
H         1.61488714224161    8.77037885275142    3.66600718186657
H         0.64638356364963   10.08719604259563    4.35180379117464
H         1.56404098264275    9.03268640249592    5.41870999710371
C         1.22873528679390   11.42368178397609    1.92677740599968
H         0.63937050477372   11.77398284663120    2.77377591338170
H         1.39203291916814   12.26004564037291    1.24473841221121
C         0.56156442032278   10.30197457096691    1.19688101142448
C        -0.55765844484106    9.65046717263215    1.69857656807393
H        -1.00401587412550    9.97871336564857    2.62697066295217
C        -1.12306938838188    8.58941839020533    1.01142290047467
H        -1.99665742625107    8.09697851061090    1.41365899215183
C        -0.57227228615955    8.15952914800990   -0.18391668392622
H        -1.01362820880351    7.32841375677715   -0.71421185322424
C         0.53786332621133    8.80940373696930   -0.69941454508055
H         0.96533786313637    8.50294668925908   -1.64378296777642
C         1.10013081309175    9.87346403070435   -0.01504147672104
H         1.94318972565811   10.39862811133868   -0.44402623168099

