44
CSD_code = FEQDIO | q = 0 | S = 0 | Stoichiometry = C15H21FeN2O2PS2 | MND = 8
Fe        3.13237553409174   15.34462546523458    8.51152427858622
S         5.45079075554699   13.99737023818813    4.64671099516291
S         0.83984685835013   15.98178907131033    5.80727350498722
P         3.61475140932248   15.78123120679517    6.49005697365545
O         2.31120187587866   12.72974754089322    7.61840318206906
O         5.30068954489481   14.15095255692706    9.54056312519408
N         5.40893269187812   14.05756681177265    7.27136128687826
N         2.56891038693388   14.96289239304670    4.05684460033526
C         2.60057811235387   13.78118113417331    7.97928019095109
C         1.83448785496938   17.04111890588723    9.10631664021733
H         1.31165620003609   17.72034500475328    8.45426241195921
C         1.31133755448403   15.86180825957475    9.64605442412242
H         0.32236411299695   15.47176670515944    9.47558122051626
C         2.27444971722805   15.33120056301954   10.55744558989827
H         2.12488332104927   14.48154755175930   11.20283111839455
C         3.36153732368410   16.22248144641915   10.61156978196329
H         4.22246323800022   16.12832121867454   11.25091395723674
C         3.13349646096489   17.24251046321850    9.66950892778553
H         3.73184480604411   18.13349463173459    9.56359323809387
C         4.78562602227975   14.45688100934966    8.49272637237458
C         4.91928448981874   14.53073680228766    6.12001146212429
C         6.49498427810084   13.10614443008958    7.29355319082894
H         7.35066124318067   13.50049526115133    6.74285968929763
H         6.18234874367788   12.16916880407508    6.82785006874156
H         6.76095960414914   12.93609787241475    8.33520672799138
C         4.41521735530701   17.37682640319810    5.87886286568534
C         5.71113249196042   17.49684762365716    6.67958556802396
H         6.11319356339994   18.50519586047799    6.59951182298254
H         6.46130646660614   16.79976674382944    6.30882327237028
H         5.52860179153451   17.27777825713855    7.73438403776878
C         4.68420722451797   17.37142357315549    4.37814087711745
H         5.24957015698967   18.26469425969469    4.11649905908224
H         3.75294297598234   17.38328163605808    3.81542869695169
H         5.27010488716815   16.50492901937433    4.07770939360748
C         3.45103258500133   18.50439163495253    6.23715140128328
H         3.33894562184019   18.58490510006878    7.31461999696377
H         2.46864784192345   18.32772155296543    5.79927602178707
H         3.82941001129299   19.45185520797584    5.85663141868796
C         2.31120994946433   15.48276550561268    5.24475607477144
C         1.57134843618078   14.67232649478979    3.06235908541290
H         0.62050575929972   15.09695318898916    3.38180828352028
H         1.46140510051718   13.59331774518633    2.93865701602199
H         1.86715979531441   15.10877528499963    2.10772584842414
H         3.52539584578487   14.63046955996472    3.88956630017115

