39
CSD_code = FEQFAI | q = 0 | S = 0 | Stoichiometry = C12H21O5Re | MND = 5
Re        3.11464029419908    0.26206367317952   13.24441583755359
O         1.98020884338585    1.02675025644430   14.20237782288569
O         3.26027967333947    1.10281203391709   11.80722280081985
O         2.48991764891626   -1.25074426107399   12.86961045908383
O         4.66444747842098    2.42398248964557   13.95624852712947
O         4.67485915110267   -0.14206414277398   14.04281657818923
C         5.66448528528454    1.86671452238959   14.79803686825292
C         5.04436341345954    1.81647623687038   16.20411407740451
C         4.69660251749329    3.22054428639720   16.69089609866130
C         5.95166375694282    4.08475714570555   16.73151865022453
C         6.57315408272727    4.15474456297741   15.34177199413876
C         6.91202948050095    2.75764813958879   14.81658626808274
C         5.94139117324080    0.40256433131729   14.25716102202561
C         6.68668624575085    0.42746393931988   12.90326036785176
C         6.82214804480161   -0.98469702990583   12.33589855063330
C         7.59209072071179   -1.87095574002592   13.30792331505869
C         6.87296427175069   -1.90635231890047   14.65097646043228
C         6.71354449183863   -0.50167223943732   15.23388184668997
H         5.05699555822551    2.75029322710328   13.13655304594582
H         4.13983066341373    1.20542983774938   16.16628796464891
H         5.75485396124670    1.36750264109105   16.89850303591193
H         3.96263790041853    3.65971361698691   16.01510164535197
H         4.24975813606194    3.15492608852892   17.68378862032637
H         5.70412294436725    5.09011377912604   17.07484800773504
H         6.67066453144942    3.65629640186067   17.43431125477941
H         5.86616493759112    4.63447453481762   14.66224722227572
H         7.48330040871974    4.75718316771607   15.36264419795222
H         7.66582183490917    2.29844935452622   15.45794497946263
H         7.32819508536172    2.85111585242093   13.81120163707219
H         6.12847532232353    1.04486918072334   12.19326479738447
H         7.68130522840189    0.85155945536877   13.04814713411835
H         5.82611401703935   -1.40206368482539   12.16469264102210
H         7.33625900951911   -0.93788454450303   11.37414628747878
H         7.67437744064691   -2.88153553770222   12.90558113729976
H         8.60351760640177   -1.47783402711620   13.44156388810051
H         5.88162001289154   -2.34449758521933   14.51704870545707
H         7.42512922812996   -2.52600979753701   15.36004350435030
H         7.69319782174478   -0.06071968472349   15.42535874245985
H         6.16928177726932   -0.57591816202763   16.17460400574847

