128
CSD_code = FEQFOY | q = 0 | S = 0 | Stoichiometry = C68H54AuClNO2P | MND = 2
C         3.44002913880585   10.84616427220029   10.12291996021002
C         2.98948693905437    9.91754513617613    9.19429631950306
C         1.66576664569313    9.96732796846281    8.73700766276572
C         1.09492563630840    8.82699055710904    7.93585835749592
H         0.81248788790517    8.04340353158366    8.64843440648964
H         1.84507041641984    8.39385048921755    7.27532691950600
C        -0.13935373142513    9.23948525706183    7.14337553082630
H         0.14245230303537    9.94570814282262    6.35849954903872
H        -0.57856313208909    8.36198509172289    6.66536146604791
C        -1.14102990914704    9.89469536999508    8.08423921498614
H        -1.35993792239286    9.21404097122286    8.90911789075791
H        -2.07715095088629   10.10656853072604    7.56451797108102
C        -0.55219327462836   11.18942684419900    8.63072275632094
H        -1.18056083659276   11.58089164084681    9.43289885915570
H        -0.53782278809409   11.94250042021664    7.83457759806461
C         0.85584949540834   11.02811704817284    9.13704456458560
C         1.35910498021945   11.98965126558492   10.00181856139415
H         0.72873462125132   12.81410377699630   10.30070798723425
C         2.63418937583008   11.90198252972216   10.54346169187696
C         4.44699712885450    7.95875236385515    9.65573949534284
C         3.92081139064461    8.86063700939942    8.73656648114804
C         4.25785439968912    8.74870967911706    7.37935516232730
C         3.92946295578247    9.86869476469062    6.42707825047845
H         4.71489302599456   10.62587777359818    6.53606844061131
H         2.99093757206690   10.35093276449170    6.69722698813516
C         3.89347180446564    9.40372556390100    4.97634298966296
H         3.04668869472646    8.73075152904245    4.82298263492115
H         3.76264653060031   10.26466911950089    4.31849326964017
C         5.18996790579576    8.67459048624303    4.65053631608490
H         6.03659059430899    9.32752987182246    4.87325391373051
H         5.23279440110482    8.41897666146083    3.59033207253926
C         5.28203870773236    7.40524467143687    5.48863667897584
H         4.56360963709314    6.67115620705959    5.10752991840529
H         6.27467557566817    6.95924929531161    5.39430557364273
C         4.97202791357028    7.63658639950835    6.94364244718397
C         5.35231246244741    6.66877264385451    7.86265429507266
H         5.84544639228085    5.77247662454905    7.51480614399940
C         5.14034942018696    6.82380749075697    9.22542141552401
C         3.07055837402781   12.85736286104355   11.57589355647007
C         2.28457204629822   13.03059245544360   12.67512299423808
H         1.35816513507710   12.48452718241557   12.77295946313100
C         2.66628982799284   13.88372601663470   13.74528445836284
C         1.87813905634450   14.02630270880006   14.88907841884089
H         0.95577862897810   13.46942923818502   14.95875105764607
C         2.28948163036209   14.84773101980376   15.92297150729205
H         1.67203664461633   14.94869927051866   16.80386718002758
C         3.48710071487055   15.53675066735213   15.84372278626060
H         3.79905080588136   16.17684258757135   16.65693209010757
C         4.30818557977732   15.41663544397341   14.72143634599282
C         5.54912141099043   16.10925491423793   14.60413849280040
H         5.85873309283694   16.74224137717338   15.42393540291757
C         6.31743618260716   15.98608712057091   13.49768723569580
H         7.25347881652901   16.52056431482631   13.41352364207281
C         5.92291176044042   15.15630105185245   12.40641208835732
C         6.69640942015203   15.03522084615264   11.25182085642237
H         7.62718942285539   15.57967519207853   11.18005116954960
C         6.27090742110113   14.24278600224668   10.20263315014769
H         6.86833282106825   14.17700725323574    9.30436811433853
C         5.08713331691239   13.53273035493572   10.28680115797872
H         4.76698783635583   12.92734617053048    9.45205236188103
C         4.29639931401144   13.59305428564917   11.43642377426124
C         4.70256645350381   14.44084055385679   12.49984898403894
C         3.89559383804666   14.58058934936195   13.65510385444625
C         5.56904332235630    5.77496114752524   10.17141213701025
C         4.64353426074362    5.21086458270819   10.99325158304398
H         3.62059330490508    5.55989781038911   10.96994190678720
C         4.96761857669121    4.14769345588018   11.87916271394676
C         4.01574467284995    3.56659420098892   12.71866416311453
H         3.00160289124477    3.93889281438067   12.70245235997861
C         4.36388945492953    2.53105467459878   13.56595709285348
H         3.61583176330851    2.09218743214537   14.21032788248495
C         5.66185189502153    2.05424643061778   13.59821232034889
H         5.92578652954111    1.24621338428197   14.26565213191810
C         6.64626813750577    2.60938091027070   12.77949093820029
C         7.99768133971296    2.15644600182433   12.80207712655794
H         8.25221305236877    1.34412156282733   13.46836606625074
C         8.93942496230803    2.73057803607016   12.02011727705001
H         9.96428571447928    2.38778105698861   12.04832608089813
C         8.61848361374026    3.80355169080037   11.13746117642985
C         9.58692842427124    4.41520159511201   10.34204248670215
H        10.60843935411879    4.06600946805126   10.38904216171875
C         9.24782528136348    5.46328152012550    9.50899085953935
H        10.00919359685626    5.93747075780757    8.90556098392042
C         7.94278796694580    5.91501246884905    9.43741551735251
H         7.70255993700732    6.74168791631732    8.78501824411206
C         6.93495884819435    5.32417675003149   10.20216078808824
C         7.27930833707649    4.26301382672748   11.07667295062866
C         6.29913960876067    3.66835859474267   11.90589851219356
C         6.73131256763239   10.21139815420918   13.38769841441853
H         7.64156192281849    9.70844299800673   13.73976342163147
C         7.09020902695326   11.61149763167921   12.88969072505474
H         7.94951983724113   11.57728436718316   12.22659301505663
H         7.32752470633472   12.26037223069271   13.72958651478678
H         6.25738947840888   12.03426951489998   12.33542694692692
C         5.76440695969047   10.24353999365182   14.55028572883890
C         4.91300052264390   11.31792974889417   14.78506583150651
H         4.92477211322026   12.17627882468783   14.13304026617468
C         4.05375537795791   11.31361577759808   15.87243104466666
H         3.40228846413535   12.15752948309919   16.03817006382619
C         4.01848994492279   10.22877463085427   16.72986789380624
H         3.33621273055953   10.22227741299142   17.56576878236310
C         4.86191880653294    9.15448839840168   16.50526445868393
H         4.84943501511457    8.30459972278640   17.17182276287453
C         5.73461753409698    9.16858878759174   15.43224560862748
H         6.40545838081829    8.33546304175403   15.27716914864813
C         7.13359394488416    8.43194954675203   11.67463400426449
H         6.58122888934621    7.96545848855388   10.85551012077496
C         8.33893144213664    9.12321655818079   11.04258720281726
H         7.98930117732120    9.92224953525153   10.39225631834969
H         8.89421797838616    8.40632491644966   10.44245799386352
H         9.00347595051948    9.54343363004266   11.79309102181735
C         7.47505938625020    7.32789167590604   12.65534023910184
C         8.76626667407713    6.87058691669072   12.87472762596878
H         9.60085231446183    7.30741889066220   12.34975289643967
C         9.00170505412301    5.83680995080048   13.76614065949984
H        10.01236985489843    5.48998364254797   13.92382802366526
C         7.95462833832094    5.24980269741736   14.45185264027464
H         8.14234698036205    4.44458140407190   15.14601512655879
C         6.66197944043603    5.69685209483520   14.23673305485368
H         5.83436952180567    5.24323197986677   14.76152835589088
C         6.42796264299846    6.72483955695854   13.34414694305219
H         5.41615642705727    7.07299626381217   13.17740366283309
N         6.21740820325455    9.39108921131532   12.28463527853047
O         4.68919897453942   10.62375216710689   10.70480134392177
O         4.26163435052572    8.14790568132611   11.02647918098891
P         4.61421127514999    9.48228068000182   11.87077225817599
Cl        0.92466761586011   10.17955878274434   14.37210764934235
Au        2.82694436858286    9.80277891758729   13.19955241196468

