33
CSD_code = FEQFIQ | q = -1 | S = 0 | Stoichiometry = C9H14N5NiO4(1-) | MND = 4
Ni        1.64170959343981    2.93547252450192    7.62487396513743
O         3.95703898297593    3.19180355953928    9.34879227259651
H         4.21398487132524    2.56212645661268    8.51447515765302
O        -0.08907748651451    5.34467139115107   10.20957481877133
O         4.17965646019890    1.79487643768730    7.28957349547526
O         0.72835772712929    1.18979504633221    4.23415204113492
N         2.66234306932061    3.51592544306214    9.08981899570301
N         0.25891218548707    3.94586549038538    8.41595754107945
N         2.96577937028801    1.93731013365777    6.81361455535286
N         0.56954145064852    2.37806000314088    6.19620726669604
N        -1.12545995151339    4.11284048442718    6.42407630576925
C         2.63060817113840    4.84745533554812   11.14871724981585
H         1.89181606254497    5.48637709865154   11.62682364536544
H         3.52554828365801    5.41968285764908   10.90339112177717
H         2.92617025249760    4.04458268225762   11.82455264295193
C         2.03514654862044    4.27499189706093    9.90917404588586
C         0.60630401111164    4.58510036556248    9.52878633470106
C        -1.06516654008421    4.18052728140953    7.87238875580370
H        -1.40670983759760    5.17680681119473    8.18868282301859
H        -1.77046211041138    3.43137405709764    8.26385892479532
C        -0.30450259033124    5.13875155047279    5.80444088556843
H         0.76924260410524    5.01483460550253    6.03332009060315
H        -0.62925104737001    6.11438981954813    6.16566779699361
H        -0.43891728449727    5.08929379899723    4.72414259117905
C        -0.79457146056293    2.78995003537396    5.92443477860088
H        -0.95016528452156    2.78172847331193    4.83600430031636
H        -1.50317816105816    2.08284525056041    6.38291924976716
C         1.20189439167580    1.62677220339518    5.28689844666509
C         2.61255997521791    1.36525832717998    5.71060991500921
C         3.52782892757473    0.51411782346066    4.89365539387188
H         3.01209609915840    0.22497188315064    3.98125839116735
H         3.81511286771311   -0.37542477680340    5.45605677201672
H         4.43940984863235    1.06426564892038    4.65719942875723

