115
CSD_code = FEQGEN | q = 0 | S = 0 | Stoichiometry = C46H64CrN2O2 | MND = 4
Cr        1.51143742697269    0.67491121434084    8.40958623400355
N         2.88291323825813    2.31485349611918    8.86083638768356
H         2.54876169525212    2.86580450238695    9.65183974516605
O         2.91363325250311   -0.54052399247145    8.99180573050057
C         4.18930453550693    1.75964924982331    9.28673983742559
H         4.89589753614782    2.56566310984686    9.52674482276801
H         4.59378749123070    1.18475864877457    8.44606667046167
C         4.01105436745752    0.85023697386905   10.46842233914234
C         3.34837470896593   -0.36901101175255   10.20886887116505
C         3.23352882349334   -1.30199903504275   11.26741184176443
C         3.71230797684836   -0.93293967220334   12.51072580267675
H         3.60959702126423   -1.63092155291868   13.32416310331666
C         4.32161897829747    0.29212450326052   12.78390620986386
C         4.47613734324882    1.17626186973177   11.72856281322083
H         4.96949420882175    2.12737563446543   11.86220329256694
C         2.58576875008746   -2.65527418314539   11.01319872760426
C         1.11999175388324   -2.44034103629587   10.61371456157651
H         0.58530915554530   -1.92266384573854   11.40833820036840
H         0.63590412310737   -3.39908438569584   10.43973766584257
H         1.05627495700615   -1.85153325785512    9.70263965797739
C         3.33432141975987   -3.35314848052723    9.87099317827934
H         3.33058128742889   -2.72458066077486    8.98654713123215
H         2.85600655974241   -4.29998647608676    9.62936969352598
H         4.36630427010497   -3.54560926199134   10.15897913744571
C         2.61771386395277   -3.57634977427246   12.23688841856855
H         2.04000295179130   -3.16205810953431   13.06057607056253
H         3.63824905415613   -3.75469260694469   12.56893729969784
H         2.17856713380813   -4.53621491140192   11.97165413084761
C         4.79550012120461    0.59022478307062   14.19868356488733
C         5.84038028244799   -0.45482178008941   14.61375079654101
H         6.68182286656893   -0.43631366638081   13.92435529116471
H         5.41974677933614   -1.45620422862728   14.60824477610441
H         6.20846381667800   -0.24452017633535   15.61626918977707
C         3.59783362912338    0.53272673258805   15.15792917112159
H         2.84949054165608    1.26830164577506   14.86920355537481
H         3.91843740150126    0.74744698100579   16.17559460860654
H         3.13165780051783   -0.44826276713905   15.14783874579246
C         5.43603128022640    1.97569501719959   14.32411344416115
H         6.31509641171279    2.05757741836981   13.68908746111207
H         5.74887802966319    2.14051564697819   15.35352584870415
H         4.72955093306322    2.75910993135835   14.05813167097606
C         3.02544838695686    3.19850058623880    7.74028443821193
C         3.24797192512576    4.56660068937222    7.96157211117214
C         3.37916662482524    5.41770196980615    6.87378360746435
H         3.54450420365562    6.47151331933099    7.04269107518641
C         3.30463238784135    4.93023293023315    5.58123270447928
H         3.41313994173823    5.60044753369684    4.74233500273904
C         3.08360749957661    3.58283295053951    5.37184845322133
H         3.01423882045503    3.19900263326929    4.36479411726083
C         2.93520139513871    2.69772934191017    6.43670398553293
C         3.31730203270329    5.12769951467771    9.35383872097797
H         3.54987928286759    6.18870161562066    9.31425542501886
H         4.08839104689175    4.63837634301942    9.94701892489119
H         2.36294167381268    5.01520829936649    9.87140369308515
C         2.64686181907087    1.26026526367243    6.10192457420587
H         1.72684631147927    1.18779877852893    5.52164549321352
H         2.58373457135153    0.58232892379296    6.96615097549096
H         3.44924511362797    0.87250029935654    5.47294825296099
N         0.13996356542300    2.31485076811704    7.95831728920978
H         0.47411216508396    2.86580121413424    7.16731228819053
C        -1.16642809175012    1.75964247957183    7.53242030860670
H        -1.87302408634256    2.56565388042959    7.29241616070075
H        -1.57090803047615    1.18475085738716    8.37309442163839
C        -0.98817840281929    0.85023005844305    6.35073842169584
C        -0.32550129263005   -0.36901979929386    6.61029220572322
O         0.10925337078099   -0.54053042271231    7.82735193105081
C        -0.21064991421166   -1.30200318183147    5.55174624319863
C        -0.68943220497258   -0.93294428116232    4.30843324754578
H        -0.58673005160794   -1.63092967739638    3.49499782163649
C        -1.29875314190538    0.29211510031597    4.03525611146463
C        -1.45326777994642    1.17625317676946    5.09059946182343
H        -1.94663230207853    2.12736307220864    4.95696142639838
C        -1.77262923515225    0.59021757044330    2.62047754080792
C        -2.81749943183632   -0.45483927221648    2.20541252423815
H        -3.65894476969233   -0.43634405310425    2.89480580088714
H        -2.39685580236320   -1.45621784986508    2.21090828567326
H        -3.18558261864513   -0.24453134993663    1.20289605269689
C        -0.57496108930538    0.53273549747321    1.66123236410729
H         0.17337258531490    1.26831839614269    1.94996216296750
H        -0.89556280930033    0.74745166321343    0.64356505457137
H        -0.10877426803221   -0.44824862315028    1.67132619642988
C        -2.41317595392775    1.97568052338963    2.49505382574839
H        -3.29224099036697    2.05755143816717    3.13008139624231
H        -2.72602507987116    2.14050079041081    1.46564211888526
H        -1.70670297725252    2.75910122034816    2.76103743015765
C         0.43711773992608   -2.65527517217883    5.80595640366364
C         1.90289482777005   -2.44034331094306    6.20544050428481
H         2.43757097481404   -1.92266260333372    5.41081523792023
H         2.38698815527311   -3.39908472158675    6.37941602728029
H         1.96661047687188   -1.85153399012506    7.11651450149703
C        -0.31142950231707   -3.35314970719534    6.94816530114349
H        -0.30769057688004   -2.72458325940290    7.83261282584699
H         0.16688987615328   -4.29998568367927    7.18978622841352
H        -1.34341188042154   -3.54561684441524    6.66018248464401
C         0.40517234246248   -3.57635373034168    4.58226883003168
H         0.98287895909358   -3.16206155817875    3.75857846477564
H        -0.61536386349234   -3.75469831766864    4.25022373581138
H         0.84432176927902   -4.53621811332055    4.84750251267037
C        -0.00257251062690    3.19849854976166    9.07886885274431
C        -0.22509390130796    4.56659836677210    8.85757846911362
C        -0.35628645911572    5.41770209817575    9.94536534223652
H        -0.52162831023656    6.47151245051999    9.77645599772776
C        -0.28175524690598    4.93023557702694   11.23791725652303
H        -0.39026185575343    5.60045214841703   12.07681355205202
C        -0.06073073060198    3.58283640922108   11.44730465349148
H         0.00864051851851    3.19900921493982   12.45436010680434
C         0.08767389778906    2.69773014860893   10.38245109168389
C         0.37600919186219    1.26026703438700   10.71723804679401
H         1.29602336626605    1.18780003407743   11.29751912849479
H         0.43913841032305    0.58232845241164    9.85301589327728
H        -0.42637649845379    0.87250326679565   11.34621146346294
C        -0.29442773218481    5.12769381861388    7.46531082647134
H        -0.52700667009159    6.18869566710014    7.50489260264958
H        -1.06551600997322    4.63836795823264    6.87213154614784
H         0.65993306444404    5.01520314273468    6.94774676541367

