73
CSD_code = FEQGOY | q = 0 | S = 0 | Stoichiometry = C27H41NOP2Ru | MND = 5
Ru        9.72778570153999    0.98372952628820    7.33070621240913
P        11.13430111410380    2.42166898823317    8.37807397930855
P         8.93372224798507   -0.94892297379244    6.37978459356414
C        12.09393575561834   -0.02872406567818    8.92569561094833
C        12.23042213402236    1.32605150533441    9.30521694225054
C        13.07985944808737    1.70350122949372   10.33488020307486
C        13.80119170870031    0.75662288329354   11.04427659676181
C        13.61464846052231   -0.58650823213724   10.72140883932439
C        12.78825388695565   -0.97810652736858    9.69202079156596
C        11.51129735052425   -1.40267147497374    7.06329853084865
C        10.47715371722915   -1.88032627474834    6.21992522058485
C        10.69349872853216   -2.93225562132528    5.34370366695267
C        11.93530399165572   -3.54153043479194    5.24381427246041
C        12.97087959634984   -3.03832218466003    6.02667492054772
C        12.77633629734856   -1.99837848976711    6.90799362648503
C        10.80658914907798    3.87106109610710    9.47796790917018
C         9.99605226837850    4.91870696900822    8.72236948997840
C        10.01737395445461    3.32677525869512   10.66607570723704
C        12.14964031291805    3.05041299719102    6.94230941811472
C        13.57882751827604    3.44755030257978    7.28504230148699
C        12.09267795135722    1.91598626797382    5.90925654155272
C         8.20916612686894   -0.92574235104213    4.66829938430170
C         9.12218881139150   -0.06102037451233    3.80361882205709
C         6.79882463986316   -0.34875802044317    4.72332891059955
C         7.81541166353200   -2.08067796797239    7.35265611034136
C         8.48307658607063   -2.32788237676725    8.70335378619779
C         7.49626985669915   -3.40205319557256    6.66149498705232
C        14.71602293373225    1.15409149703857   12.16423279393255
C        12.17196237559790   -4.66711462421241    4.28108890998360
C         8.51734074436211    2.19779985192316    6.67130255305565
N        11.25568297549617   -0.33598302182788    7.88227499561976
O         7.81037029851850    2.98912090736018    6.20648291028351
H         8.86419065282583    0.78923000888709    8.57282576000331
H        13.18096525973190    2.74925824995832   10.59220600702207
H        14.12850208323361   -1.34178783775583   11.30012908240492
H        12.64078269563182   -2.03013622987383    9.49403788010711
H         9.88835373279270   -3.27635184630423    4.70884917593592
H        13.95943555905001   -3.46704054063893    5.93263576003157
H        13.62034795365534   -1.61269804502876    7.46258829185541
H        11.75751904494636    4.30320200602509    9.81288293629705
H         9.64666471758630    5.68906201887106    9.40790296807028
H        10.58719828165213    5.40121655988673    7.94613747087300
H         9.12611002415167    4.44944921200778    8.26167860469178
H         9.71965623218876    4.13180045646170   11.33560587712300
H        10.60802092799537    2.60439732080976   11.22750628627042
H         9.12126506541380    2.82193753190583   10.29916773150369
H        11.60832911635494    3.91647091811887    6.53783035980709
H        14.11647971546718    3.74523093536613    6.38527040747076
H        14.10699711424802    2.61200285980156    7.74323217352073
H        13.59025313831450    4.28370833301897    7.98155390126789
H        12.38969829145344    2.26472816111758    4.91872782831858
H        12.76439900696697    1.10357337754997    6.19642107185553
H        11.04964574340063    1.51407985004430    5.83162068643371
H         8.18334089773874   -1.94269677889666    4.26237549350740
H         8.76680030130775   -0.02934430265932    2.77463877546840
H        10.14048016196323   -0.45343899567203    3.80452446401953
H         9.13553822477955    0.96197137590664    4.18991086202439
H         6.42376856589347   -0.16586323623213    3.71711320314887
H         6.80421910878792    0.59608913066292    5.26774412814297
H         6.11273526963411   -1.02689172682170    5.22610326324384
H         6.89393644722756   -1.50583367241705    7.51461257736239
H         7.80410855911834   -2.84778060243640    9.37688617086401
H         9.37829597001634   -2.93589496607726    8.57704561964237
H         8.77035048846758   -1.37758876126278    9.15862087277923
H         6.86579097562392   -4.00733026267440    7.31176264931709
H         8.41078553364020   -3.95915092946225    6.46710391938068
H         6.96564267931914   -3.25474251724768    5.72358180465577
H        15.64572064930011    0.58917483154094   12.12128958534575
H        14.94876535277448    2.21562851177806   12.11771750095650
H        14.24625317960718    0.94993667191823   13.12734021669155
H        12.88189377154190   -5.38226163648858    4.69203869848184
H        11.24280509477762   -5.18615075196414    4.05475557828688
H        12.58398610560779   -4.28716575061518    3.34439481770212

