48
CSD_code = FEQHUH | q = 0 | S = 0 | Stoichiometry = C16H25BrNNiO3P | MND = 4
Br        1.44058135788517    9.32763845919853    7.98422038448965
Ni        1.70335518946753    7.06305478131917    8.07435027259225
P         2.65147351914991    7.38470164175299    9.91285442501703
O         3.17438332014052    5.94654742607064   10.45170375384369
O         0.63802445999349    4.29041016552681    6.78045573832302
O         2.60557543423893    1.22471505207629    9.81937637724373
N         1.01711371460436    6.80849661452577    6.42796605835356
C         2.66409592147582    4.89006260783313    9.70742048921028
C         1.93109187422808    5.16802962891066    8.55465070557354
C         1.40660964041325    4.04442022601374    7.88423907250426
C         1.65932946405308    2.75842940080573    8.33916549556369
H         1.27589429042270    1.89089653366690    7.82889259373817
C         2.42387987293903    2.53369128952087    9.48069431798117
C         2.92660288415238    3.61420457685773   10.18527024708576
H         3.50728504700505    3.51168578587379   11.08675789572648
C         0.06653616669258    3.21035955637029    6.09158888256048
H        -0.51925115744335    3.65101986997639    5.28500613547182
H        -0.59768569080820    2.62453742872740    6.73548590331448
H         0.83034332719105    2.55208064206611    5.66360306303860
C         3.37711997416256    0.93598954227644   10.95864019581297
H         4.39873625290353    1.31690337999368   10.85891809879216
H         3.40309731067970   -0.15027705260055   11.03087476698339
H         2.92387132759682    1.34774513006235   11.86638498788004
C         4.23868601096640    8.32213087781361   10.09869928504647
H         4.72146572891714    7.84858635501091   10.96431166231730
C         4.08577531534008    9.81674165926521   10.33519206900422
H         3.56829235725158   10.29139800799117    9.50529100677469
H         5.07211415894110   10.26983336924913   10.42546817989060
H         3.53321343478503   10.02337524579282   11.24851713935156
C         5.05904271121025    8.03590578809621    8.84298104488797
H         5.14417733953261    6.96075114033259    8.67863047122907
H         6.06093091571688    8.45296943987736    8.92830297789889
H         4.57597757412324    8.48279259782078    7.97294940422188
C         1.50789912813973    7.95371021192933   11.26094292389513
H         1.32690244131265    9.02119250408585   11.10003815889703
C         0.19971456667694    7.18974006477607   11.06888957323385
H        -0.17026177199591    7.32289312074195   10.04612531154708
H        -0.56563706350131    7.54446304902115   11.75693918115708
H         0.35312072838276    6.12350439657530   11.23806958362855
C         2.10491246222725    7.71524770736959   12.64056798684587
H         2.35143641438876    6.66269461909639   12.76821681104094
H         1.38540919057786    7.99460910116801   13.40878513278011
H         3.00910585743677    8.30098262327348   12.78997331650278
C         0.62041472517970    7.01609933607819    5.37142167464631
C         0.12174725627351    7.26989652009079    4.05683734605878
H         0.92534560712014    7.66741617621165    3.43715867860758
H        -0.67911452016543    8.00707273519471    4.11546133463722
H        -0.25783406998191    6.34915066627754    3.61480988485398

