67
CSD_code = FEQHEP | q = 0 | S = 0 | Stoichiometry = C24H32Cl4N2O4Ti | MND = 6
Ti        0.16279948859546    4.92336973251297    7.89729490956432
Cl       -3.69145942083271    6.14577661166222    5.87395468086891
Cl        1.91032023311815    0.08751676196668   13.16556286838983
Cl        4.01690128644943    3.91297046236851   10.00897429584803
Cl       -2.21876179871954    4.54815757097535    0.94524901612265
O        -1.06680557103764    5.20938672526183    6.62354385428834
O         1.32558418309918    4.13293246008050    9.00791481736309
O         1.28038438483742    6.13075710188465    7.29896367180595
O        -0.69682034117500    5.76589226412562    9.16278959134959
N        -1.03767748374361    2.95879857651340    8.34165247963650
N         0.93845493235297    3.38827171199350    6.30793392597386
C         2.19342392027819    6.78872208604642    8.10832923396158
H         3.08149885554955    6.14659710156935    8.26462570318374
H         1.74530173417992    6.99175276102021    9.10056467723497
C         2.63946053979685    8.11291573627110    7.47143557459315
H         1.75008420667176    8.72311397935962    7.29360795821256
H         3.09284167105159    7.89549366531781    6.50091360315390
C         3.62653215237123    8.86366727012653    8.35411545496862
H         3.17504676671931    9.09802817441912    9.31568720286461
H         3.93195059492930    9.79369756502029    7.88037468881390
H         4.51366136231854    8.25942631863315    8.53215117394161
C        -1.36096732078586    6.96582216824513    8.96413369080316
H        -2.21272344269489    6.80821062707469    8.27565691088088
H        -0.67769275682765    7.69933532426498    8.49421250450222
C        -1.88741964387242    7.53708671940804   10.29016790678462
H        -2.29690107225176    8.53293827161528   10.11056074205692
H        -1.04732543571160    7.62477805735050   10.98326874920139
C        -2.95460100812989    6.63303130370253   10.89523436601060
H        -3.80642555233237    6.54777767856620   10.22279708243484
H        -3.30166767268078    7.02852186363889   11.84714455007387
H        -2.54057052752757    5.64031683714291   11.06228839491253
C        -1.29196705383350    5.07646117888993    5.35474388539432
C        -2.52995302289253    5.46625372593502    4.79536727213306
C        -2.82613869578602    5.32080167820105    3.45614623992194
H        -3.78136672620737    5.63707835433486    3.06960292508760
C        -1.87186800208173    4.75375304346031    2.62598101265684
C        -0.64828202767519    4.34169617557728    3.12943065935792
H         0.07889511005194    3.90165716870672    2.46355980080086
C        -0.35087431253444    4.49685142033462    4.47332732235070
C         0.99243175004881    4.09455948818736    5.01705303763502
H         1.50523918023761    3.46847547083605    4.26607231032632
H         1.58530054188693    5.00416026561406    5.18593229190781
C         2.30224051863022    2.97738902487770    6.63427303102758
H         2.73807835101019    2.37962711817358    5.81743050289195
H         2.32031582746886    2.37945479623285    7.54349568453542
H         2.91678673217990    3.86347411011085    6.79510666574260
C         0.05351956505463    2.22335469653073    6.24531579683846
H         0.56510439025033    1.36251730042407    5.78223866685949
H        -0.80602010607205    2.47585587186804    5.61659896563180
C        -0.43484557934480    1.82212280494514    7.64220902071227
H        -1.15386762785087    0.99080745312089    7.54698580176205
H         0.41168746302669    1.46255664575429    8.23560678363211
C        -2.43174094826254    3.13004277451947    7.93698751587840
H        -2.51579238520780    3.19700037233372    6.85404050164099
H        -2.82093514210519    4.05262194950371    8.36868853805188
H        -3.04674900388614    2.28249771936622    8.28024469949869
C        -1.03011702706932    2.75361510629686    9.79896584494824
H        -1.70916858097984    1.92497529187774   10.06647092646891
H        -1.41323731845259    3.68183887719260   10.24348597132516
C         0.32692117386441    2.47413784193229   10.38447120047967
C         0.49049490070610    1.51191767653750   11.36752678480295
H        -0.35602030079107    0.92812674969180   11.69682827217107
C         1.73283116913098    1.29502419978170   11.94179024045114
C         2.83810319137268    2.03019658235113   11.54206723499809
H         3.80656359000566    1.86255786184788   11.98448947099257
C         2.67369885967560    2.98121138263370   10.55692352755084
C         1.42630428243515    3.24816433387932    9.94853731373547

