67
CSD_code = FEQJER | q = 0 | S = 0 | Stoichiometry = C34H28Cl2P2Zr | MND = 12
Zr        1.18074124876788    6.39710624875901    4.03178515176148
Cl        2.39137885392938    5.08599132001386    2.51963400330229
Cl        0.58371755907507    4.39725886704333    5.08739184007312
P         1.26166000900707    6.16108800905442    7.55103073715326
P         1.01375850097523    7.07381112023730    0.56807119279667
C         2.10032561794250    6.99944091553431    6.15550144540740
C         1.83127320905104    8.24342405876960    5.51763684359574
H         1.15395881907503    9.00979637453548    5.87275318162672
C         2.74074282260910    8.38651274865381    4.44705550853926
H         2.87431573056715    9.27865674674197    3.84890503895880
C         3.57478561785090    7.24784223231995    4.41579489661624
H         4.43007413977775    7.10465424100483    3.76981815360729
C         3.17546626765166    6.38348777664421    5.45150500940421
H         3.65025577983030    5.44790514349199    5.73168924403768
C         0.00826194687870    7.16890005541125    2.09553105238517
C        -0.74776545534722    6.05516068588745    2.56319576148674
H        -0.87757151783443    5.11959332735789    2.02733624013415
C        -1.37426758601532    6.42430450029153    3.76759954474161
H        -2.09338976321504    5.82825146748885    4.31242323873875
C        -0.99437016075897    7.74934666912106    4.07289770061821
H        -1.40319200638141    8.35018146408834    4.87500094713208
C        -0.14507256834523    8.21710442918240    3.04637117536929
H         0.20340950765444    9.23613593579610    2.93495694762436
C        -0.38709853209852    6.98255823138904    7.41019545730854
C        -0.59642906065455    8.31743115335145    7.75154267622924
H         0.23055850341833    8.92347493848422    8.09537119651933
C        -1.86531754591074    8.86430279645063    7.68296071445872
H        -2.01728361271348    9.90173988940983    7.94497895962360
C        -2.94272821895134    8.08287845445947    7.29526728753385
H        -3.93311349662229    8.51158229051771    7.25282247594626
C        -2.74733161722013    6.74869927500694    6.98014570623718
H        -3.58991719937857    6.13267497902428    6.70137177565083
C        -1.47621199674806    6.20082755100889    7.03530155656598
H        -1.32018606369792    5.15475194188900    6.80974102831600
C         1.91052517203011    7.16724786547190    8.94712087273602
C         3.08821388325772    7.90009439518166    8.86739133643582
H         3.63008216022548    7.94768378386939    7.93274499020668
C         3.56464522620605    8.57486948358796    9.97791628455009
H         4.47664838444150    9.14996317107451    9.90522880848600
C         2.87819410498389    8.51516970165696   11.17850948002874
H         3.25130250014568    9.04451292243177   12.04292287719992
C         1.71364491787059    7.76888061137183   11.27076433970879
H         1.17938350457735    7.71320418731790   12.20829014213199
C         1.23829569266354    7.09220299383036   10.16439443309430
H         0.33161476791064    6.50512117754577   10.23095216381778
C        -0.02858194770277    8.10180303213926   -0.54495810602384
C        -1.38686346737751    8.30242239408397   -0.33205817004791
H        -1.85616914974223    7.90614189191243    0.55771423234186
C        -2.13782597381452    9.01465714293978   -1.25074834724359
H        -3.19174711204623    9.17327639935533   -1.07329781692019
C        -1.54415626114450    9.52256603351373   -2.39367594220498
H        -2.13277342628853   10.07827070561670   -3.10875714085960
C        -0.19361677320987    9.30985991574116   -2.62203081516559
H         0.27135989911597    9.69735524748847   -3.51697352325390
C         0.55687838730411    8.59638692459253   -1.70784814607853
H         1.61078639905657    8.42371288977834   -1.88273062069953
C         2.26951534143187    8.36040315276661    0.99161375086841
C         3.58057237016523    7.94512567278876    1.20756527733802
H         3.81489602046630    6.89102995284993    1.14853446360536
C         4.57669931097466    8.87231137311252    1.46607950340581
H         5.59435342695478    8.54393564520356    1.62001289545686
C         4.27267780102312   10.22242839789289    1.51516938501773
H         5.04795888394211   10.94663511558725    1.71752068046465
C         2.97218258145836   10.64478525931946    1.28697388687855
H         2.73533809745128   11.69905117528484    1.30865030602195
C         1.97708713385867    9.72270115756083    1.01583766915669
H         0.97434041164067   10.06411438873536    0.79818716004588

