87
CSD_code = FEQKOD | q = 0 | S = 0 | Stoichiometry = C39H45AuN2 | MND = 2
Au        0.62065563859948    2.04014927777382   17.86845966537535
C         0.68607517620556    0.26851226262363   16.87610113089906
N         0.79404909329344   -0.93393041093244   17.47065392619788
C         0.61962997072279   -1.94541483931613   16.56201636449003
H         0.66989062673754   -2.97757173383564   16.84084246939358
C         0.39224213121916   -1.35444111830490   15.36570161064902
H         0.20410297450324   -1.77035950684504   14.39740498905659
N         0.43516649382205   -0.00012040449887   15.58166472357985
C         1.03747677758886   -1.11106556640350   18.85913969220938
C        -0.05047411931829   -1.25669662775788   19.72216587564277
C         0.20971365486421   -1.41620440189618   21.07612465584254
H        -0.61054231606712   -1.52099787749715   21.76873528808762
C         1.50704183890055   -1.43165265278425   21.55080865126063
H         1.69082894570658   -1.55247775009479   22.60792374732658
C         2.56928126066278   -1.28345981596397   20.68034565915898
H         3.57681166985462   -1.28579147641713   21.06541186761119
C         2.35528660914891   -1.12104385362218   19.31855994863634
C        -1.47355060130194   -1.20607406182443   19.21796313384552
H        -1.46746058128934   -1.16739416671954   18.12364508782033
C        -2.25603326830656   -2.45457539762292   19.63020410349917
H        -3.24728879892613   -2.43607086796814   19.18254100714145
H        -2.37236027068253   -2.50586302003817   20.70903036564567
H        -1.74379152587629   -3.35510168488324   19.29708338877564
C        -2.15656566075694    0.06551938655723   19.72661489813717
H        -1.59332998513401    0.94423544844809   19.41394653731665
H        -2.21467401955554    0.06559458629082   20.81195365032229
H        -3.16546162288342    0.13535887056013   19.32570543426545
C         3.52069474892564   -0.92743278307500   18.37842463466483
H         3.15051562934490   -0.87902633478597   17.34943528839960
C         4.50422433620019   -2.09636703752827   18.46407085880404
H         3.99780999069275   -3.03934278209798   18.26603179267180
H         4.96020744937071   -2.15255643891934   19.44861956422111
H         5.29632949178206   -1.96867213263780   17.72968044916494
C         4.21292837901205    0.40135552984978   18.68596381561428
H         3.50052848864544    1.22187880956196   18.62578801326573
H         5.01142202485524    0.58724626067949   17.97196391547036
H         4.63970973820142    0.39629018113903   19.68510024035517
C         0.24166871331490    0.98546994704384   14.57727112749388
C         1.32611345014940    1.34741829047103   13.77410382011091
C         1.12414663446365    2.32394300394058   12.80941705667243
H         1.94429519149280    2.63831891101886   12.18426818609486
C        -0.11912888378825    2.90387989459859   12.64010408189201
H        -0.25909086325179    3.66113568185853   11.88314622864950
C        -1.18168440811754    2.52113616020987   13.43466269457658
H        -2.14660235304744    2.98090549745381   13.28939587018749
C        -1.02151851297477    1.55755131445052   14.42176181727131
C         2.68873587173227    0.73209647395610   13.99332550562354
H         2.56802508583635   -0.22429519513756   14.51358575472546
C         3.42509966055949    0.44785840735895   12.68369121818488
H         4.31434274782250   -0.14574956930523   12.88464796665502
H         3.74140422797948    1.36772470036043   12.19964353409118
H         2.78874670949856   -0.10598271499839   11.99637854171417
C         3.51277346448067    1.66031315315576   14.88969176500011
H         3.01171695977649    1.81900434824030   15.84275679880508
H         3.64415105496548    2.62625848324506   14.40782349899646
H         4.49305892560233    1.22933162814962   15.08062037194486
C        -2.19282521192429    1.14460497853899   15.28094538450510
H        -1.85499684887872    0.41516280123221   16.02366360612278
C        -3.27157137658407    0.47805724411861   14.42320545372015
H        -2.86474716352660   -0.38268629284033   13.89529873437279
H        -3.66694837966654    1.17409524032278   13.68796172631161
H        -4.09249143559605    0.14072054195178   15.05196176564019
C        -2.75780726054633    2.34469619494708   16.04161343488403
H        -1.97274044561495    2.81441754393200   16.63146098688558
H        -3.54913274793002    2.01955464449831   16.71341729592808
H        -3.16924069870927    3.08458734318043   15.36048990822495
C         0.37446465517711    3.73207385776971   18.95371221979213
C         1.44249670333956    4.49172271996549   19.46215983148725
C         1.24172219146591    5.58627692870204   20.29843074101052
H         2.09850374484977    6.14105728993238   20.66099900169301
C        -0.03449335434859    5.98240581766636   20.64676327962016
H        -0.18606673521400    6.83922386827675   21.28986111745833
C        -1.11200502695105    5.26600281412534   20.15892918803831
H        -2.12160074102435    5.55796480761112   20.41938473608667
C        -0.89692056670350    4.17011158345078   19.34155562558098
H        -1.76956522327220    3.63028705290105   18.98848593435927
C         2.83854567243691    4.15842362808717   19.12264507328356
C         3.26398843724819    4.11482624168848   17.79782238893724
H         2.55077704420945    4.31281240599188   17.01001226653469
C         4.58822985220856    3.85962855379788   17.49087489199428
H         4.90983796267098    3.85044785135720   16.45884559764019
C         5.50627128653788    3.62657933133806   18.50078438971442
H         6.54121939676675    3.42826592580840   18.25982026753175
C         5.09257672962253    3.65684527007771   19.82188894239575
H         5.80486261070949    3.47554150019630   20.61513412644749
C         3.77227579051147    3.92771649819011   20.12934400926527
H         3.45083709376710    3.95582152793696   21.16130579122062

