46
CSD_code = FEQNUL | q = 0 | S = 0 | Stoichiometry = C19H21Cl2O3Re | MND = 9
Cl       -1.34107302623393    7.88133799082740    9.20347022080028
Re        1.74483410448944    3.73054709899491   12.30807065101518
Cl        3.63793372204768    2.88611078675294   13.21054874825056
O         3.20625937093174    4.32266539167958   10.08630191045838
O         2.67518702669440    6.67029656548508   12.63916629653647
C         1.22306308785761    5.27373164513465   10.79280450607953
O        -0.30148073695952    4.26456253365268   14.53200261883036
C         1.98340013034716    0.93028886613812   11.20122961426728
C         0.13973528366115    6.12055340501599   10.61030030058497
H        -0.60920634674105    6.21068065930543   11.38213707871348
C         2.20394268749451    5.19737741327410    9.78192517278014
C         1.89443153294062    1.43347189272290    9.85322690493221
C         0.84002242215305    2.30022827383194    9.78360534225978
C         0.23473695090383    2.42944411505377   11.13552177923764
C         0.95021807829290    1.49074778715889   11.97589883653829
C         2.30764730112934    5.59107621191300   12.47289794408560
C         3.00176444686032   -0.00820182307256   11.71398436728592
H         3.58517224867020   -0.45757914139266   10.91472110471938
H         2.54551511649850   -0.79121343118581   12.31898899307159
H         3.68051860457120    0.55121677101129   12.37469990651731
C         0.02755717228085    6.85225687485594    9.43404052334960
C         0.43101646062969    4.07809066460067   13.66414040676685
C         2.09880963056372    5.95030221732286    8.62408345613811
H         2.85237519309611    5.90484092395133    7.85375103840622
C         0.46038875705476    0.87633531501195   13.26507691122529
H        -0.33016335466936    1.47405689402617   13.71195731819293
H         1.26720383530953    0.78285780866099   13.99110929417289
H         0.06563534954766   -0.12120391542198   13.06275015745867
C         4.33725445024686    4.25622821512023    9.25201247652796
H         4.07894300044215    3.87438357291203    8.25938537848314
H         5.02959001157388    3.56828771137913    9.73532368082580
H         4.81342084028951    5.23671445050107    9.15511397671235
C         0.99965056242781    6.77833257419784    8.45091139482743
H         0.90408244190684    7.36688830917586    7.55261716575342
C         2.81584897321258    1.01207520033474    8.75670382278900
H         3.85740721529968    1.13122758603950    9.05611959372034
H         2.64256119705058    1.59589591436153    7.85590403651667
H         2.65600758528256   -0.03933368178109    8.51217379100632
C        -1.24726526208116    2.68216807187353   11.23792533980432
H        -1.78781710242599    1.87162804159728   10.74683768158492
H        -1.51388018803862    3.61605435874498   10.74885800328139
H        -1.56831820701632    2.73525572068048   12.27431103529100
C         0.27722966769780    2.95726539098565    8.57203168690362
H         1.03884578165037    3.11731526289831    7.81111589752359
H        -0.17883991952126    3.91346288408831    8.81524537314458
H        -0.49496609741641    2.31657062158510    8.14039826262594

