28
CSD_code = FEQPIA | q = 0 | S = 0 | Stoichiometry = C9H12ClNO3PtS | MND = 4
Pt       -1.88949126239427   13.90367950573013    5.29529790949564
Cl       -1.89501279185719   13.51826589475482    3.07662489955223
S        -1.88427775328390   16.05864070792012    4.62318468093065
O        -1.87842444145234   17.06594294433093    5.69608249225649
O        -1.89938843070120   11.91835473880260    5.56625670576003
O        -1.87110022685889   15.49340690893626    7.83235896271540
H        -1.87439615586311   16.17415485190686    7.11482042187509
N        -1.88294207470455   14.21837464133184    7.28019217589777
C        -0.50877427290637   16.48262726770942    3.52237994050793
H        -0.55361913729252   15.81209684706242    2.67216188534460
H         0.41532331471599   16.33805217468480    4.07247506012091
H        -0.61108021700192   17.52113824092491    3.23026913311635
C        -3.26854804573552   16.48538793662249    3.53453020697146
H        -4.18854353775364   16.33551208327546    4.09030385700054
H        -3.22810635962000   15.81885925745146    2.68086256835604
H        -3.17105544817027   17.52573088097117    3.24691272667545
C        -1.88632019563500   13.29224594152035    8.18006127203514
H        -1.88088962207328   13.63664488346200    9.21198305852464
C        -1.89612879968375   11.88517875094121    7.98121870139609
C        -1.90221378891218   11.27902390615838    6.69450133832625
C        -1.91171099780751    9.86601194537058    6.63369434256261
H        -1.91672832030727    9.41870040780707    5.65212227598654
C        -1.91481632782537    9.09880623296353    7.76795405759602
H        -1.92167450052809    8.02205407629475    7.68559999848534
C        -1.90867875655459    9.69727385128432    9.03091719098400
H        -1.91145539017303    9.08635123737915    9.91997162884999
C        -1.89961103777630   11.06314930549321    9.12589031962390
H        -1.89473542184400   11.53853457890972   10.09617218905285

