91
CSD_code = FEQSEC | q = 0 | S = 0 | Stoichiometry = C36H49Cl2N3Pd | MND = 4
Pd       -2.01926625424738    3.04237488143156   -4.53602113378027
Cl        0.04132940494099    2.94418523070380   -5.58838042734563
Cl       -3.94903695151514    2.79316353498379   -3.32074756328111
N        -0.99379659309246    2.38992327004354   -1.83117429459447
N        -0.16096413256393    4.23659780267605   -2.56408054016815
N        -3.08343366024927    2.59632296807237   -6.40562962234077
C        -1.03678992046695    3.25773664725649   -2.85948032286942
C        -0.09240156318968    2.82945916516215   -0.89172961505191
H         0.09951265575171    2.28148773531602    0.00755724690820
C         0.43069778496140    3.98612207094718   -1.35152750288249
H         1.15039385177411    4.64992550802697   -0.92060941045299
C         0.07475176062434    5.40882398615733   -3.33479469000236
C        -0.96204794933617    6.33992156195338   -3.47530874772898
C        -0.69694268653265    7.50947735132385   -4.17766138931130
H        -1.47474628404407    8.25032046781110   -4.28261335787841
C         0.54757334213833    7.74418414909261   -4.72762983867030
H         0.73510866194058    8.65787349187750   -5.27272366208472
C         1.55791141650155    6.81612701039616   -4.57187893096456
H         2.52834967959822    7.01521511613991   -4.99776519844608
C         1.34824364120022    5.63679868249436   -3.86957618818497
C        -2.32771603756009    6.15205304923353   -2.85225779778879
H        -2.37127618193174    5.19430352847446   -2.32156987317494
C        -2.60910010619413    7.25788484793451   -1.83162041506957
H        -1.82683631478224    7.28973082405043   -1.07526150253057
H        -3.55918499094525    7.06771758870980   -1.33809366984171
H        -2.66180017205437    8.23220748231971   -2.31048630889765
C        -3.40786885346213    6.11090842247692   -3.93634716428971
H        -3.19994557620293    5.28202361041008   -4.62858275951639
H        -3.44507395330984    7.03900321339921   -4.50155574146903
H        -4.37909214099417    5.93428569623155   -3.48030887552326
C         2.49520455017071    4.67119469740082   -3.67991072677690
H         2.11777428897479    3.74634670055473   -3.23486606480627
C         3.53772325621375    5.28227039190834   -2.73746013145385
H         3.09457535411045    5.56954117383095   -1.78578398560527
H         3.97881186380105    6.17044857109557   -3.18356577020092
H         4.33179311310062    4.56452049752696   -2.54449549572939
C         3.14492552811130    4.29508478763184   -5.01242982925684
H         2.39656421978373    3.88105860372326   -5.68187259264937
H         3.91299215569670    3.54329379178156   -4.84443199376318
H         3.60771878213018    5.15455304931211   -5.48959378849536
C        -1.83825567820525    1.26234347690777   -1.59954572469251
C        -1.67175155237132    0.09128687230448   -2.35008752516589
C        -2.47321883368961   -0.99844346708910   -2.03844114493511
H        -2.36807158128493   -1.91866436018789   -2.58877428513169
C        -3.41012256199151   -0.92762601979049   -1.02503323029193
H        -4.02428570986873   -1.78728424438522   -0.80063082371811
C        -3.56534620907130    0.23779044856376   -0.30413037372322
H        -4.30670658607532    0.28385474654076    0.47781450578906
C        -2.78502114813026    1.35436605593620   -0.57416740844314
C        -0.61955175925014    0.01396645530700   -3.43566857070456
H        -0.67380312319119    0.94112261156249   -4.03186829116421
C        -0.81167373335799   -1.15807491841615   -4.39815717069181
H        -0.13923515161865   -1.03818973313671   -5.24515298396506
H        -1.83187861969964   -1.19757089214294   -4.77243807289560
H        -0.57443426383806   -2.10465575610745   -3.91605617291863
C         0.77794360968067   -0.07791077290372   -2.81104519644885
H         0.99509732870465    0.77902395594443   -2.17859728141852
H         1.52861146084405   -0.11478412810524   -3.59694537093585
H         0.85966032124468   -0.98061525379954   -2.20722572349596
C        -2.99975870867695    2.61456301467005    0.23356199631172
H        -2.37208870889178    3.41722552372610   -0.16405686311942
C        -4.45144931198918    3.08678996535594    0.12718149352752
H        -4.56172114379834    4.05477785938851    0.61170652215875
H        -5.13172712924818    2.38624247200069    0.60343684813959
H        -4.72904565481415    3.18266370560343   -0.91922717979658
C        -2.61147573268090    2.38648190108834    1.69727155728457
H        -1.57503824859386    2.06566829457659    1.78349308573228
H        -3.24047339664631    1.62255704510905    2.14714531308821
H        -2.73393009688386    3.30783533150688    2.26243124040024
C        -4.50368287574321    2.95279619447692   -6.45215404319152
H        -4.98809624020578    2.48904901060293   -7.32254037351457
H        -4.61414356993460    4.03504779414561   -6.52350676525741
H        -5.00262671576491    2.61383695325525   -5.54530024286550
C        -2.96779892820193    1.13658660124270   -6.30715516425563
H        -3.49362877717626    0.64478053135384   -7.14016628963785
H        -3.41319470007018    0.79538941688889   -5.36506345695701
H        -1.91255964490693    0.84789050989696   -6.34551378756682
C        -2.45520430105948    3.02945929239921   -7.66925646387560
H        -1.39017934330707    2.77797593307619   -7.62377454026322
H        -2.91153434687430    2.47451373924766   -8.50516344348329
C        -2.59743011821256    4.50636389421140   -7.91501075265588
C        -1.97327657793512    5.42315613052902   -7.07667683372390
H        -1.36983483277516    5.07388141912665   -6.24290329471223
C        -2.08918607537944    6.78034017795376   -7.31845394215237
H        -1.58478736381662    7.48023195669287   -6.67033014609072
C        -2.83270149403975    7.23828329947192   -8.39273552279292
H        -2.91939419555546    8.29842622034901   -8.58140682195535
C        -3.46022030169947    6.33183460597363   -9.22944222256277
H        -4.04012262471089    6.68115846966094  -10.07131447520233
C        -3.34219324562914    4.97433733785570   -8.99059392009577
H        -3.82958679248946    4.27064916198361   -9.65156099011551

