93
CSD_code = FEQSIG | q = 0 | S = 0 | Stoichiometry = C36H51Cl2N3Pd | MND = 4
Pd        2.42943874330321    3.24601612378953    2.07654469326748
Cl        4.43127331360270    3.37115359778163    0.96825970057213
Cl        0.50509743983284    3.55514193237172    3.27164966387603
N         4.32250855915797    1.99613124953467    3.91381015414414
N         3.43884287103091    3.74965278000820    4.83807731761448
N         1.25755477211878    3.52228567998467    0.15935607598044
C         3.44176593133259    2.98770026099931    3.74469232830024
C         4.89511792142140    1.98873929146847    5.26012437288723
H         5.97734741037384    1.86915374691335    5.22466489419696
H         4.46992084485988    1.15387271394132    5.83219376182254
C         4.46244038637043    3.34498989224402    5.80019201590868
H         4.05374144820671    3.30017891088102    6.80947476258332
H         5.27948542386447    4.07729715425174    5.78909788770895
C         4.46656106503621    0.81043530498099    3.13829693933138
C         5.69890738198649    0.53524151514588    2.53221658729139
C         5.85923497146455   -0.68646635224757    1.89259112085110
H         6.79937268538543   -0.91925421342407    1.41836845677826
C         4.84093240651353   -1.61814804513160    1.86776817489604
H         4.99170772216187   -2.56915259822335    1.37730959145010
C         3.63331067466994   -1.33560438702180    2.47520715031296
H         2.84450782470732   -2.07247319052984    2.46128084638668
C         3.42130832399836   -0.12267036230773    3.11899417406326
C         6.86133202415087    1.49849829500127    2.59054444778833
H         6.51070684907120    2.44601704997500    3.00826261177899
C         7.41776902458974    1.80296038741863    1.19895208711805
H         8.21929722300855    2.53411583959499    1.27902841636799
H         7.81538906715854    0.91125349491874    0.72212352606899
H         6.63265365326564    2.21855730618410    0.57455246073824
C         7.97047828745246    0.92535134384735    3.48102127145717
H         8.75118206470571    1.66787398083977    3.63180931468653
H         7.58902477074402    0.61938376445351    4.45417589175785
H         8.41714826508009    0.05229208363766    3.01122603727140
C         2.08934608757629    0.12708318655715    3.78927286247029
H         2.09916979819095    1.10124831888473    4.29172957427824
C         1.79249423789849   -0.93934991685016    4.84602793409070
H         0.87685157317618   -0.68659472145310    5.37559814162851
H         1.66348802431222   -1.91856876444933    4.39245812439205
H         2.60445315605570   -1.00370387682199    5.56888040986950
C         0.98436417777856    0.18804817570055    2.73207075990915
H         0.02934592829689    0.40627343889742    3.20411197771046
H         1.21147159379744    0.99829363932005    2.02587069427325
H         0.90556984003687   -0.74664826899633    2.18157789458474
C         2.67839496044519    4.91739692501505    5.13465526136412
C         3.06660457955771    6.14298590910861    4.58913222245791
C         2.33719556251243    7.27686354223288    4.92338769265857
H         2.60692566287412    8.23037708879955    4.49634948665405
C         1.27383688437313    7.19925371486711    5.79950010399023
H         0.71467777402513    8.08870273393568    6.05029221859320
C         0.92853049421390    5.98619371006911    6.36292262295308
H         0.10315862000548    5.94164298671328    7.05583516713129
C         1.62130377182918    4.82574125900427    6.04875890467893
C         4.22469068126381    6.24679800130150    3.62506223836613
H         4.75704924799093    5.28998061804917    3.58657645508842
C         3.65991119297184    6.50129185576525    2.22741625270020
H         4.45484914525480    6.48172986171653    1.48491141428766
H         2.94255122417393    5.69831622306123    2.00703057066681
H         3.14529197439825    7.45873473765860    2.17860216505452
C         5.22588582771543    7.32662389082125    4.03537784227402
H         6.08748106688611    7.29713314293468    3.37207620053715
H         4.78551216136193    8.31815791505049    3.97279377997549
H         5.56870055482353    7.16778795026847    5.05643242304402
C         1.24181847413321    3.52561184296737    6.72083002265326
H         1.79734021807275    2.70875123934484    6.25041427323904
C         1.60316261365200    3.58471600362661    8.20979251970279
H         2.64817280641836    3.85165365753663    8.36131008327220
H         0.99427787004898    4.33004271336945    8.71561595781082
H         1.42107174382853    2.61953250046525    8.67790967169237
C        -0.24566743854157    3.20843014407435    6.56071058329457
H        -0.45922494139197    2.22609436086496    6.97760800867379
H        -0.86426657369815    3.93802659685905    7.07590683771814
H        -0.50922005127702    3.20900244286650    5.50719018457485
C         1.14309359975497    4.98441409476336    0.11723390200966
H         2.12738287975909    5.42868975212177   -0.04710620725295
H         0.48427195722250    5.29862037472978   -0.70685357222908
H         0.71550513859534    5.35077217803267    1.05525490134780
C        -0.10089592051732    2.96851621813096    0.18604930136903
H        -0.06645268177683    1.87952820381711    0.19352683570414
H        -0.61889232351257    3.30733551996178    1.08233552314767
H        -0.66437285414527    3.29531988269970   -0.69877588066431
C         1.91428205135113    3.09172500221112   -1.09464974690442
H         2.96161812588639    3.41123469368753   -1.05462412565746
H         1.42489264452159    3.59656102851569   -1.94308366051994
C         2.50270643885896    0.73491531110624   -0.44470434500047
H         3.05636876291251    1.12956351739468    0.40328593529794
C         2.45775707125994   -0.62956628733481   -0.66698534034062
H         2.96832063130692   -1.29538700524292    0.01037438519856
C         1.77427935765274   -1.13971781761415   -1.75762514602931
H         1.74367616342116   -2.20594213838815   -1.92883492191603
C         1.13446486473025   -0.27836208319968   -2.63141836653982
H         0.60140038107808   -0.66845824686451   -3.48628586869896
C         1.17849999682814    1.08639031853600   -2.41011654602375
H         0.67927915360100    1.75542007554405   -3.09778289798566
C         1.86238468541602    1.60634807707778   -1.31778043194043

