99
CSD_code = FEQWAZ | q = 0 | S = 0 | Stoichiometry = C44H46Cl2O4Si2Ti | MND = 6
Ti        5.39102713132286    6.64223459721108    0.00018547351882
Cl        7.13227273569315    6.33147739009645    1.43713295427492
Si        3.41452736449043    8.63436993811107    1.72798239448732
O         4.52959250801275    7.68432734530294    1.06292551424674
O         4.52860111187821    4.96858387032228    1.09640893811079
C         2.85667631135972    9.89375356489125    0.42509176701097
C         3.59193057737196   10.02027018507092   -0.75088084047916
C         3.21861086572057   10.92352696030405   -1.72997415139953
C         2.09615297265697   11.71415765959127   -1.54770159049526
C         1.34788055743388   11.59299293432038   -0.38831582289139
C         1.72674693125060   10.68899710715475    0.58743126763074
C         4.19109295753721    9.42635770191879    3.26842929601010
C         5.39791533565474    8.94796375070683    3.77335656032312
C         5.96930622752093    9.50639710359969    4.90356672706217
C         5.33999265304318   10.55612183808012    5.55133360116462
C         4.13926176446907   11.04410910676429    5.06181891342174
C         3.57374005660936   10.48180339021664    3.93173851800233
C         1.95202278893995    7.52185871037501    2.24956297042797
C         1.54408286092889    7.40375877263830    3.57496407566572
C         0.50553099494919    6.56056225613420    3.93215401909522
C        -0.14522905060319    5.81423876609975    2.96372159964668
C         0.24553746160782    5.92098867870051    1.63859418461721
C         1.28153553395116    6.76928503422083    1.28673977143386
C         4.50868216341698    4.97041598268513    2.53873344016854
H         5.50326352200659    4.65711398825081    2.88330559047561
H         4.31333421347631    5.98904945458863    2.89031523030952
C         3.42211060229135    3.98550513096447    2.96589775793793
H         2.46652733325935    4.49879862281481    3.07496627487827
H         3.66885362523080    3.49149555191415    3.90252354269478
C         3.37362637561991    3.03070826788085    1.77682191133652
H         2.43232833175840    2.49313161268966    1.69811541250863
H         4.19361426776162    2.31212564009091    1.82910726087087
C         3.57961745476239    4.00152459578209    0.62096492935758
H         3.98789350339689    3.53838446297704   -0.28246869297438
H         2.64013260673676    4.50894004548082    0.36725107203459
H         4.46365823401892    9.39018506053796   -0.89696065963572
H         3.80218984773061   11.00767397820402   -2.63542781781643
H         1.80110537458987   12.42039383142698   -2.31059546292021
H         0.46643658825196   12.20275136286518   -0.24759395230772
H         1.13308680790815   10.58900268968157    1.48540912381013
H         5.90074491335454    8.13519802203932    3.26463427824157
H         6.90903401079203    9.12393098484895    5.27518757584902
H         5.78437614450231   10.99578441305934    6.43290757955524
H         3.64582477551406   11.86540553502622    5.56225033805569
H         2.63931277765109   10.86821048461606    3.55191908886082
H         2.04855819262461    7.98323331759365    4.33558395993870
H         0.20286658695546    6.48448495425151    4.96699746310036
H        -0.95525231878828    5.15441802160433    3.24050185061820
H        -0.26229684171618    5.34489915500994    0.87766801055216
H         1.57859193787459    6.85405718277539    0.25014455625891
Cl        3.64965190100073    6.33169704874775   -1.43672844697553
O         6.25217823627660    7.68448222247993   -1.06263609875995
Si        7.36708610335608    8.63443514213706   -1.72809940219181
C         7.92508567719075    9.89385412289849   -0.42530934774737
C         7.18993784550023   10.02022419143661    0.75075124854181
C         7.56320808941652   10.92351340627053    1.72982682481385
C         8.68552180654725   11.71432851413439    1.54745128601519
C         9.43369594846022   11.59329861481122    0.38799023994019
C         9.05487567742016   10.68926603411238   -0.58774669607242
H         9.64847852650878   10.58939771811016   -1.48577726125267
H        10.31503293487853   12.20319561459098    0.24719662843786
H         8.98052741117831   12.42060480700229    2.31032363097408
H         6.97969684885170   11.00754487228930    2.63533453288014
H         6.31831919979700    9.38999471048474    0.89689538652336
C         6.59035673802823    9.42641026048544   -3.26847194415346
C         5.38362018465040    8.94790285988606   -3.77349540798086
C         4.81216006417287    9.50643460263782   -4.90362480163124
C         5.44131298165336   10.55635966059813   -5.55121808095442
C         6.64197122322263   11.04444529412064   -5.06161890835513
C         7.20755809261514   10.48204946498265   -3.93161789343579
H         8.14190258919898   10.86855745452618   -3.55170943537746
H         7.13530016209176   11.86588626127277   -5.56192364136952
H         4.99689302083695   10.99607292792437   -6.43274788309401
H         3.87249309060937    9.12389455423556   -5.27532118250031
H         4.88085900108803    8.13502539146808   -3.26487401447918
C         8.82939605875759    7.52174034824652   -2.24982536684192
C         9.23762964766682    7.40396654474674   -3.57516369550917
C        10.27611650912499    6.56068464521261   -3.93234694008249
C        10.92648130524663    5.81392517505102   -2.96398503592451
C        10.53535473032307    5.92027656604545   -1.63892870252110
C         9.49945076751412    6.76868156146198   -1.28707293341562
H         9.20205937785229    6.85311846001095   -0.25054571775474
H        11.04280681592845    5.34376370517994   -0.87807071855195
H        11.73647211649947    5.15406499604568   -3.24076038335894
H        10.57907858621513    6.48491500803502   -4.96712378368768
H         8.73350604094242    7.98382275982140   -4.33571815110258
O         6.25363374671877    4.96888856621205   -1.09587065307122
C         6.27318406050767    4.97081143779007   -2.53816628212346
H         5.27836332424339    4.65802762470201   -2.88256553372648
H         6.46894989912665    5.98937548484424   -2.88972126765921
C         7.35920889500069    3.98545490551410   -2.96561368934749
H         8.31495904822768    4.49830645040814   -3.07473305140187
H         7.11205425058671    3.49174928993023   -3.90223789604200
C         7.40747193722544    3.03044761567784   -1.77671449482933
H         8.34853889552716    2.49243343369366   -1.69825193155634
H         6.58716949363609    2.31223427700548   -1.82898905546947
C         7.20208885961193    4.00118510494206   -0.62066799093203
H         6.79359628795326    3.53806979396933    0.28268283925035
H         8.14187630823603    4.50802148231876   -0.36688469877279

