63
CSD_code = FEQXUX | q = 1 | S = 0 | Stoichiometry = C31H23ClN5O2Ru(1+) | MND = 6
Ru        6.44231190819298    3.40296256211983   12.17729049561941
Cl        8.49454964346128    3.29281785933848   11.03910716632647
O        11.34491248371343    1.04639098946369   15.97889388520586
O         8.96847106636154   -3.77305604263893   17.20346945796396
N         7.28620417472245    4.75822850346518   13.41465480678468
N         7.26823182187950    2.21143961889701   13.38963975385921
N         5.94101954286781    1.66200295029770   11.28743805342149
N         5.58652350768314    4.66971578974741   10.88749600833414
N         4.64451791958935    3.61024447004316   13.02050467177727
C         7.26382785528434    6.08599077619107   13.33606736437046
C         7.96618508746852    6.90552957304679   14.20001078390094
C         8.73397162408316    6.32201688704569   15.19923779911747
C         8.76566561523780    4.94331255311762   15.28977056826338
C         8.03618756199294    4.17618602132850   14.38385559192805
C         8.04128244419412    2.71227852128086   14.36618998408814
C         8.77668631677026    1.86981618891952   15.18907405420583
C         8.73574163272087    0.48990753478153   14.97390504017230
C         7.97593231074831    0.00812662943420   13.90260690983055
C         7.25566558948185    0.89674660288936   13.11666313037530
C         6.47955908266811    0.58589885931367   11.91444227864850
C         6.31255958452384   -0.70150730227527   11.40846307806166
C         5.59574986451698   -0.89051626569377   10.24200459218503
C         5.05441980238503    0.21946473817527    9.60701858410166
C         5.25255549726983    1.46847320847639   10.16570010582293
C         9.48357852758010   -0.44567565510450   15.81858282945890
C        10.77170002368608   -0.14846347035845   16.29276581328928
C        11.45129787269748   -1.09160479667809   17.05259391453568
C        10.87548809109967   -2.30620751281627   17.37056901660391
C         9.59409124292197   -2.60447948395657   16.92046098991282
C         8.91726941847296   -1.67453616423932   16.14329868818799
C         6.16874364946337    5.16355015135770    9.79278591748888
C         5.53446895578304    6.04785760196119    8.94107913110988
C         4.23419564529591    6.44666691698795    9.22796767665457
C         3.62152373706187    5.94002672384066   10.35877984965979
C         4.31801254564577    5.05003278992125   11.17621919001231
C         3.78198327740995    4.44479134093303   12.39103254927508
C         2.50142988467038    4.67446613099348   12.89322655457927
C         2.09681185737325    4.04063059401555   14.05193677710218
C         2.98949983823362    3.18381683442238   14.68688486468926
C         4.24266440182512    3.00189601561665   14.13892934123563
H         6.66257856265540    6.51185390699205   12.54071589568071
H         7.91872419792090    7.97603492930294   14.08613785962528
H         9.29981633176309    6.93061385822101   15.88650614336375
H         9.35933220606666    4.45747186581671   16.04626017878316
H         9.38996989364040    2.26720497169868   15.97797890050373
H         7.98883849884509   -1.04389708063443   13.67218076571654
H         6.75099369986135   -1.54137964504361   11.92165606614550
H         5.46595327241262   -1.87930523008976    9.83177126419806
H         4.49495849274331    0.12058378963538    8.69138264100257
H         4.84825871287869    2.35479516143127    9.68980283710810
H        12.44969673399205   -0.86807685539433   17.40261679218520
H        11.42259827565402   -3.02026060616190   17.96918627804037
H         7.91880949620819   -1.91782023161724   15.81716215023110
H         7.18242072282162    4.82675519735022    9.60890415400570
H         6.05006966097797    6.41700887403043    8.06989727384873
H         3.71167271166739    7.13592596313591    8.58421588590327
H         2.61418166343685    6.23154086246255   10.60565424732031
H         1.83080097101675    5.34294807069480   12.37966762413770
H         1.11050883080658    4.20689781357868   14.45387797896721
H         2.71637064198171    2.66679707587876   15.59199307775222
H         4.95959081187542    2.34142620566401   14.61216631460218
H        12.26654492475379    1.04822058911172   16.26608113513633
H         9.53491977898731   -4.33597872971514   17.74516726757716

