29
CSD_code = FEQXAD | q = 0 | S = 0 | Stoichiometry = C11H13Br2ORhS | MND = 8
Rh        8.25023015657974    8.93087330824344   19.29299585599660
Br        8.54295409098947   11.18089341951146   18.39120223703416
Br        5.84270108183814    9.14182425660779   19.59164145847810
S         7.71505293440150    8.39343753632454   17.23348959064083
O         8.91102388242230    8.04473526624324   16.50325506877760
C         9.73286985479838    7.27083144053523   19.66277396267580
H        10.00351398322608    6.51773884234014   18.93760617057125
C         8.66426085137508    7.18726665743864   20.58895958199209
H         8.04836009122747    6.31832368350903   20.77187109823903
C         8.76621723712851    8.32379051989706   21.48418120080770
C         8.07187836855946    8.67872028060276   22.64901462291935
H         7.27427683704150    8.05235100012758   23.02017864681626
C         8.43168488729179    9.83770806595090   23.29635072713902
H         7.90981333867050   10.12798627101350   24.19517705761064
C         9.46655049104885   10.65474337995542   22.81828705238517
H         9.71545129276046   11.55344006533411   23.36122581108401
C        10.16951925457088   10.33435683906444   21.68039977621147
H        10.96579395367113   10.96554826871663   21.31495537778189
C         9.82625839650812    9.16105992667082   20.99379506276870
C        10.36853951724590    8.52284610713924   19.80967883362547
H        11.24905029237182    8.84929729681192   19.27740610762270
C         6.72234103994670    9.49346841678062   16.18943279703557
H         6.43070069542440    8.91948523762911   15.31800533334942
H         7.34129092464571   10.33595306877587   15.90108747601364
H         5.86031090977760    9.83241086421702   16.75276458343576
C         6.65621330045429    6.91008893295572   17.18466144896923
H         6.65855303308705    6.55116195578420   16.16153585329216
H         5.65844441166619    7.17469615102538   17.51452443954065
H         7.08264489126783    6.15646294079267   17.83984276718145

