129
CSD_code = FEQYUY | q = 0 | S = 0 | Stoichiometry = C66H50BF2N5O3PRe | MND = 6
Re        9.59695971367763    5.05837913927041    3.50745593385564
P        10.44726369884475    3.04058244036656    2.30211093511120
F         5.91846891638137    2.01128575551766   10.76998805108097
F         7.90041980747005    0.95241009700410   11.11628771814994
O         8.54281688468764    6.52773564526065    0.98992674577307
O         8.51737609984497    7.28917276005395    5.36125929478856
O        12.33472041833440    6.47288134176093    3.17184174818130
N         7.72439988896012    3.98107527212447    3.80003467597036
N         7.08078098233190    1.08219049948686    8.87458156460917
N         6.00924258076839   -0.40040078183053   10.57031859838461
N        10.26504728223200    3.99642347750141    5.27696596652792
N         6.63166797409336   -1.21099436725413    8.42392968315789
C        11.30946783768089    1.87856227466783    3.39861394583967
C         8.35027063466976    7.54554472275647    9.85984673754133
H         8.65907037276081    8.15350074055741    9.01173400206759
H         9.11266867397863    7.59949482872923   10.63300674055372
H         7.42883252400414    7.97185477064272   10.25770307021258
C        11.45859744512548    4.13552464071619    5.83811389306946
H        12.18316035055361    4.83565684050999    5.45730593713750
C         7.41678563182926    3.06690589979996    4.78623532444471
C        10.43959646903551    2.58937123378304    7.05946120627080
H        10.19147808195457    1.83876507639788    7.78379843430370
C        11.66488814157232    3.30832253843929    0.96430482969136
C         7.07835168262623   -0.03282551507315    8.06509728092452
C         9.58841045971252    3.04602586271049    6.01410791930620
C         8.91488050395227    6.47655813828030    4.66031921562469
C         7.65736087090675    3.48764311462248    8.61656039804484
C         4.94684321271453   -0.17915926471517   12.81599088715882
C         7.51368629760991    0.33414409513514    6.75207985579176
C         7.68879919973559   -0.63368047351446    5.68374605440521
C        11.32208887376780    5.94696527403492    3.30451059083612
C         5.45794156769017   -2.57511774246281   10.09121636445003
C         5.31261270014474   -0.89656254888505   11.61091626513288
C         9.28817259641169    2.00340474852179    1.34780572345231
C         7.48072835116283    2.12985639826669    8.13847341467358
C         4.95980358239553   -2.23311894143283   11.33571665410607
H         4.40878428226537   -2.86050978843781   12.00796943739677
C         7.36967410681537    1.95111391578114   -0.10503719081690
H         6.55143200367847    2.46299541470909   -0.58928798426968
C         5.39098482224845    1.38901791038593   14.58838476066003
H         6.05710497440570    2.09976777584857   15.05564765526109
C         7.38668847378197   -0.34923759144195    4.35150498882428
H         7.00048101942707    0.62087598191523    4.07948068279754
C         3.70338219349778   -0.44195247359664   13.40039650575724
H         3.02996224137076   -1.14198072283819   12.92845648145144
C         8.27836117167174    2.62125409219675    5.79252028377081
C         7.73391540782363    1.70275662752529    6.80385775489234
C         6.10022450010155   -1.38674056204035    9.60736323527346
C         6.60163909257275    4.20141588096833    3.12265648643031
H         6.55985619498648    4.90557579455489    2.30894587885420
C         5.78931150141993    0.74601804578361   13.43465083105878
H         6.76356263890212    0.94547594979291   13.02534806988985
C         5.36482578683168   -3.84524871080415    9.40462580237389
C         8.92786303747756    5.96016100642027    1.91535956303278
C        11.61514564026347    3.28262872755858    6.94337006276413
H        12.48982164229491    3.20536215640840    7.55921014394521
C         7.44241030792045    5.85953663359643    8.24520253065694
H         7.09476554293442    6.67830111997655    7.63205970783079
C        12.59502721024760    0.24160049615470    5.23207242935400
H        13.09777554443586   -0.39971039535414    5.94050886989852
C         7.22042123719031    4.56277219981136    7.83686717735667
H         6.67580569204887    4.37843027627417    6.92369435232808
C         3.31176354425683    0.21438309440035   14.54797279699727
H         2.34056319004553    0.00822645837528   14.97547093092323
C         8.53797752151126    5.06071676166783   10.21158733927440
H         9.05870948832760    5.24989781229740   11.13933572133542
C         8.11436882494066    6.13076745699462    9.43347499173399
C        12.65988789251311    2.06978105676453    3.67981952119733
H        13.20308985814213    2.86356678482435    3.18362481613999
C         4.99877126599014   -5.00246467130118   10.10114270741141
H         4.79641996615703   -4.94889629192882   11.15981744976960
C         8.31275213884374    3.75703657034076    9.81766007408021
H         8.67014587448515    2.94527099884886   10.42766322834084
C         3.71678137142034    1.86977290821501   16.39525136527934
H         4.55541761925419    2.01393224521203   17.07305288968521
H         2.92907194379035    1.32866027208640   16.91411955136700
H         3.33233354111255    2.85423748902778   16.12624786665683
C         9.47951205424230    0.64200884355300    1.13839404952906
H        10.29514443355336    0.12100393845594    1.61906920400541
C        10.59903246735557    0.89224555563194    4.07513372081600
H         9.54016100232583    0.76613692007222    3.89452105907687
C         8.15269127354108   -1.91504282319930    5.99596378502435
H         8.39404830633078   -2.15289907938996    7.02004651166293
C         5.63801274890362   -3.95756030685450    8.03847634119481
H         5.91445221094223   -3.07575711481008    7.48419878877631
C         5.53324931439675    3.44388059805850    3.62635028867716
H         4.52697688036262    3.44817799105424    3.25491312457970
C         8.00304773773428   -2.58557343500483    3.68485392217192
C        12.62200796792071    4.74420407618291   -0.71030645928969
H        12.68387216419448    5.71318770238768   -1.18234423579674
C         6.03869543231271    2.72656939990766    4.68118332021571
H         5.51341095593441    2.05587443003513    5.33447034769662
C        13.41431510941215    3.70039540595632   -1.15603960586518
H        14.09875477344706    3.85216686217593   -1.97728770625103
C        12.45466017659120    2.25802919764064    0.50429651005473
H        12.39273878621877    1.28734134949081    0.97597945229630
C        13.32809306685960    2.45797199718749   -0.54735529797441
H        13.94364866753354    1.64129806743621   -0.89536081520337
C         8.23853251634054    2.65431427216930    0.70802731968407
H         8.11308624108168    3.71860547281811    0.85126804786761
C         8.30985550127045   -2.86858073462336    5.01140782179704
H         8.67389737355920   -3.85136013109978    5.27633096071109
C        11.74810490961045    4.54927810628094    0.34489023075889
H        11.12990092472459    5.36460174957268    0.69764245236301
C         5.18994784104060   -6.32801458652198    8.09545194034582
C         4.14834849700677    1.14085861798465   15.16137343013265
C         7.55608546460767    0.59303194267862   -0.30174330452044
H         6.88066266143041    0.04037638911100   -0.93821682639273
C         5.10923150389955   -7.65828369046481    7.41336688349933
H         5.14754857963340   -7.54587223660749    6.33277458487871
H         4.18824061996951   -8.17267586234318    7.68217286165611
H         5.94316105355620   -8.28880459040743    7.72324987412733
C         5.55165013917797   -5.17912025726820    7.40210797832752
H         5.76567246606162   -5.23979976073539    6.34413036042540
C        11.24426004889930    0.06996921781106    4.98036030928639
H        10.68369171821885   -0.69849466537406    5.49227469747707
C         4.91561750497688   -6.21744280856739    9.45593783199956
H         4.63573541210121   -7.10091619097049   10.01250469283175
C        13.29929803648886    1.24569303509255    4.58649454618356
H        14.34862885534846    1.39206443431514    4.79641162718805
C         8.19110335986999   -3.61641599511215    2.61498012453000
H         9.20475471675748   -3.55693401278936    2.21554784906065
H         7.49502889805216   -3.45585393452908    1.79471545977464
H         8.04700439412029   -4.61905454412375    3.01118026489393
C         7.53396792177072   -1.31499125703187    3.37521193323440
H         7.27380750642581   -1.07437434400359    2.35430502182501
C         8.61445216407942   -0.05518548238219    0.31429986005552
H         8.77164245954942   -1.11154363567004    0.14942442073065
B         6.71871456321890    0.96781920817485   10.38082501233572

