69
CSD_code = FERBEK | q = 0 | S = 0 | Stoichiometry = C26H38FeNP3 | MND = 6
Fe        3.70424980074736    3.32395467072452    3.41939977563503
P         5.70574255550132    2.72395978043000    2.75084704501248
P         4.35608019792462    4.21994948642997    5.26638158160671
P         2.73490422350662    2.94313487322191    1.53216195948708
N         1.93043003744936    3.65263214091222    4.07014565445136
C         3.56343847439990    5.22058910329986    2.83540339418677
C         4.40402444689427    6.09804885514804    2.17857875496571
H         5.38263297617997    5.77504767683936    1.86951061519815
C         4.04927676564256    7.42128945135580    1.88367945497224
H         4.76284563412765    8.04960523104761    1.36450518430238
C         2.82876155302395    7.92900608468219    2.23719925383155
H         2.55710692492736    8.95042809951840    2.00889788723610
C         1.91362351955395    7.10106069922878    2.91191240579103
C         2.30222629700672    5.76943603997456    3.19376241963830
C         0.63351407294043    7.53098953138954    3.32070145783655
H         0.33305279184741    8.54767224557573    3.10754938469698
C        -0.21666151588771    6.68070743166958    3.97660249150306
H        -1.19447231872304    7.02397334635633    4.28472044756298
C         0.15664785280525    5.36323517853941    4.26013479681101
H        -0.54006235410058    4.72170531368146    4.77998240786949
C         1.40216218920380    4.91186508445871    3.87274789606665
C         1.30512002441021    2.68271306704626    4.66113269432873
H         0.29762033202066    2.78445056762640    5.05421990960592
C         2.03454870402947    1.47664146771112    4.76171232920274
C         1.51039659154213    0.33129204799933    5.37393564331634
H         0.50802458508731    0.35855603396731    5.78289047506304
C         2.27143327407437   -0.80830330253803    5.44889502435165
H         1.88808184853922   -1.70465646923671    5.91607751403560
C         3.55431682555285   -0.78601319645835    4.91076574779886
H         4.16807536263384   -1.67677609559833    4.96533887619021
C         4.05502271608111    0.35262082913380    4.30961205985109
H         5.05841149724901    0.29086949100801    3.91836652968512
C         3.33706939896906    1.54614507761180    4.19170670003461
C         6.88557997989089    3.81532033927798    1.82973983192311
H         7.79202036315245    3.25567582945439    1.59738346616169
H         7.14966916783268    4.67818013516858    2.43674099135127
H         6.43482253938633    4.15930558708379    0.90205626439622
C         5.86732321574804    1.30121849529112    1.58042453542397
H         5.50569414931731    1.59631716776710    0.59810555308143
H         5.28410931074288    0.45240571416884    1.92069179476774
H         6.91426797036028    1.00809027369451    1.49763191346796
C         6.95354429998579    2.17978480922039    4.00292613393011
H         7.83465771167597    1.78430191678628    3.49678990602721
H         6.54280330168202    1.41532531312598    4.65372396937965
H         7.24982461475997    3.02910670835058    4.61404193854597
C         4.82781402481171    3.10559496814056    6.65548147625264
H         5.12185888698908    3.67585894915071    7.53687098523611
H         5.63403227544269    2.44216961822947    6.36043577907353
H         3.95620692786403    2.49363949048136    6.88695565225009
C         5.75193042185365    5.41548892292854    5.24487510747670
H         5.40501730732363    6.30613967957162    4.72249117244906
H         6.60292028447240    5.01361737006987    4.70317979267837
H         6.05094647435944    5.67529936210369    6.26045479708584
C         3.20080202761674    5.27176788143352    6.23910707751367
H         2.32216683654657    4.69888727613211    6.53137913671909
H         2.88819550205427    6.13326100182066    5.65313762385501
H         3.71685348853011    5.61560159182317    7.13657139512546
C         2.37585444970517    1.19498858068282    1.07512082753352
H         1.73142334883249    0.78402504881540    1.85202290129884
H         3.28858431249038    0.60864353848125    1.05197184521773
H         1.87314252134757    1.13450277500227    0.10966355034395
C         1.03746638569269    3.58365152887468    1.22099292740445
H         1.02683875092802    4.66991349090733    1.27766518510076
H         0.33885364226725    3.17969926116935    1.95186079865114
H         0.72696609548477    3.27270367954742    0.22257850463963
C         3.48246196222941    3.59269488649006   -0.01586334768757
H         2.92559227957906    3.24406245853576   -0.88575088270745
H         4.52260113898823    3.29402977287849   -0.10456361973787
H         3.44060874489577    4.67989673458459    0.03812724364824

