40
CSD_code = FERHOZ | q = 0 | S = 0 | Stoichiometry = C15H23NbSi | MND = 13
Nb       11.71380614293194    3.20475084789303    3.66870827879611
Si       12.20555831158596    3.20476875973589    6.26777581693266
C        11.37413656146245    5.30318400910479    2.25297873751381
C        10.10097500787605    4.74000864994324    2.40222451484384
C         9.74120980177256    4.81068264823793    3.76216659104100
C        10.78722762139305    5.44901714938681    4.45451774227697
C        11.81986509046428    5.72861293677993    3.52763088382104
C        13.99765565036715    3.20474733246373    3.68973180857865
C        13.53690928152933    3.20471450391040    2.32964884402557
C        13.22900189865595    1.70921402424474    6.93855818589876
C        10.59891663780595    3.20472549317437    7.34575966590109
H        11.86512623833175    5.50402121887520    1.31140903144148
H         9.45827266190433    4.42254061297705    1.59402841389249
H         8.76827885741380    4.57491288279182    4.17431524847996
H        10.74338974686222    5.80182104866905    5.47366847141999
H        12.69016050148392    6.34517807422068    3.72141972438477
H        14.50667803313343    2.30552924591479    4.03407044427677
H        13.75144910508244    2.30625317117063    1.75194214387144
H        13.31301970180067    1.75887179382241    8.02045001985394
H        14.23747406104309    1.71682805488946    6.53652289585858
H        12.78907853544750    0.74802638372822    6.69135548548792
H         9.98249049665963    2.33020679063542    7.15676303412119
H        10.84145361637546    3.20474480773026    8.40495122315798
C        11.37410589878239    1.10635059410286    2.25297328989884
C        10.10094009235263    1.66951096298299    2.40222883911105
C         9.74117530303971    1.59883104265802    3.76217199969614
C        10.78718922104274    0.96048939181756    4.45451413276688
C        11.81982833195542    0.68089633659658    3.52761935516651
C        13.22892423727354    4.70036587373335    6.93858896888287
H        14.50668185482382    4.10397973880818    4.03402806997670
H        13.75144326476484    4.10314533909906    1.75189201623303
H         9.98243985406517    4.07920414718082    7.15674082533840
H        11.86509552501277    0.90552889826652    1.31139767677579
H         9.45824199941683    1.98699500236976    1.59403421487610
H         8.76824606350753    1.83460415777497    4.17432503687272
H        10.74334800913534    0.60768654657801    5.47366418433115
H        12.69011278004128    0.06431177195358    3.72138993145677
H        13.31289037353599    4.65073367795359    8.02048600264438
H        14.23741454029633    4.69276955301930    6.53660311606772
H        12.78898908956874    5.66153652480743    6.69134513402850

