67
CSD_code = FERJOD | q = 1 | S = 0 | Stoichiometry = C32H31ClIrNP(1+) | MND = 8
Ir        4.82735810126984    6.90572955394707   15.68633821493268
Cl        7.05075074242131    6.53888625832520   14.90360721095020
P         4.67605034048003    8.22168241908209   13.83244120633933
N         5.69954118300326    8.73487956699424   16.37352284309573
C         4.30591567324680    8.31594919683115   12.14189018866757
C         4.40710729605484    9.52953797279717   11.48186344855280
H         4.12718967503999    9.53967979181287   10.43631435286164
C         4.85796278359554   10.73272929362053   12.03019935307596
C         5.31111917278739   10.83705653490533   13.34321793674368
H         5.70390699605177   11.79694219644544   13.64695556409785
C         5.30674746336989    9.78560480772217   14.25142862584302
C         5.84477606130113    9.83961000507175   15.60405297241343
C         6.53731161046004   10.94979980100678   16.09570871765665
H         6.65393816046626   11.82180782112005   15.47442532756801
C         7.09205286904208   10.92404781208492   17.35801947004873
H         7.63296893265801   11.77685736777877   17.73670279390169
C         6.95589195463308    9.77163419535136   18.12005983074546
H         7.38826865841540    9.69284020786137   19.10351171478233
C         6.25692679337435    8.70962203770637   17.58341353072018
H         6.15476891921167    7.79405790115545   18.14534571400718
C         3.88993842199326    7.08614371420646   11.46190787826509
C         4.53926164996581    5.89257538275181   11.77672066906792
H         5.33525115561004    5.90526054899411   12.51159029020589
C         4.20268652397055    4.72085914010982   11.12478332635989
H         4.72792611625150    3.80581610991245   11.35468775345239
C         3.20155359883205    4.72317253418365   10.16571686078370
H         2.93870725848549    3.80880008673253    9.65687987863955
C         2.54259740438390    5.90262025675765    9.85796628088304
H         1.76101740476180    5.90536671650553    9.11398900481563
C         2.88588005523324    7.08063608047971   10.49593385688951
H         2.36257559689773    7.99486377529829   10.25880859110681
C         4.88340694693558   11.93259053540400   11.17705391272859
C         4.44983119576971   13.15891858437632   11.67820747814366
H         4.07336437624133   13.22053989753739   12.68935421996576
C         4.46028406434226   14.28652104808259   10.87882862349153
H         4.11157490231878   15.22790391104609   11.27555732521532
C         4.91416487582750   14.20911056711837    9.57236844963953
H         4.92545733505018   15.09071378082212    8.95045211776238
C         5.35371003803244   12.99643309455599    9.06735633891453
H         5.71461325715499   12.93270478348627    8.05218490401460
C         5.33421465245418   11.86410509557052    9.86023016077793
H         5.70044238463679   10.92720605133640    9.46672519106513
C         2.86518394752396    6.44820948376844   16.63882030753274
C         3.03768044409585    5.59496205546287   15.49360491281804
C         4.20337774309114    4.79942007454403   15.71373024811338
C         4.71641598067235    5.11370331293441   17.03090970186219
C         3.87051908652550    6.09903824094443   17.60540835770665
C         1.68040531915576    7.31325246212652   16.90918359832967
H         0.89677235782207    6.71948315533968   17.38242682991894
H         1.27750295778940    7.72936428922908   15.98930908859259
H         1.93251326620378    8.13090345705232   17.57999167038620
C         2.07282729013003    5.46337132835497   14.36426531164459
H         2.55797387226935    5.09754390304076   13.46324722160001
H         1.59488674525869    6.41345635539317   14.13705969250293
H         1.29435017688664    4.75292653600639   14.64651467704171
C         4.69234540349241    3.66676657504012   14.87808840539623
H         4.46530719336213    2.72487697686243   15.37886034437424
H         5.77119206706138    3.72230049605694   14.74617866748491
H         4.21801213573472    3.66372093121694   13.90151543664022
C         5.82826433809742    4.36817774850062   17.68343881361584
H         6.12304778534954    4.82127612537911   18.62598211468519
H         6.69761525388566    4.33031333712656   17.02901282125075
H         5.51386613030757    3.34229153462379   17.87807185395632
C         3.89084661490838    6.59422233007534   19.01090808622111
H         3.07825961865983    6.11708338266137   19.56118869357409
H         3.73321164723843    7.67042738543534   19.06158402985098
H         4.82211002199650    6.34799208607251   19.51457698568137

