78
CSD_code = FERKUI | q = 1 | S = 0 | Stoichiometry = C40H34P2RhS(1+) | MND = 7
Rh        6.46732698443798    4.08274964373902    0.22382175860039
S         4.53425224282568    3.30302729385823   -1.39546766244884
P         8.15015328929011    2.73183087690776    0.89767070459775
P         7.78496029688704    5.87510741515543   -0.12745139271926
C         4.49273991318992    4.85308439349686   -0.60589414650838
C         4.35312154421072    4.75638586558852    0.77574585934492
C         4.51397541348251    3.41976123852536    1.22151179096673
C         4.77648632356537    2.55659643794165    0.16258763471248
C         7.53736238692624    1.79845491931931    2.34064433084069
C         6.98529749877814    2.54738829024348    3.37980360400278
C         6.48443032346631    1.92049833652645    4.50457790996539
C         6.51474097889322    0.53690520222997    4.59421915361215
C         7.04423976131269   -0.21175401243397    3.55692576493185
C         7.55454949951003    0.41246421018952    2.43046875537488
C         8.62810980945214    1.43699982538360   -0.28830136504753
C         9.73358055105101    0.62420591995719   -0.04649035970851
C        10.06394273437067   -0.37364545724900   -0.94452606777120
C         9.30038099356314   -0.56746412792148   -2.08586257965071
C         8.20184766599434    0.23943730861701   -2.33135266939956
C         7.86682783052821    1.23787892274005   -1.43404760199093
C         9.77985536094505    3.33729973453802    1.44629649283451
C        10.72519984634671    3.64440049768290    0.46965491590906
C        11.97716461789370    4.10261755949323    0.83151703945707
C        12.29687257438569    4.26468064372029    2.17004447604798
C        11.35867648438609    3.96751156216029    3.14360504541632
C        10.10345251833408    3.50690705650142    2.78743406216783
C         8.90360977848989    5.85757955749625   -1.55612693804029
C         9.02841542539312    4.69005659229872   -2.29947118369453
C         9.85066676422229    4.65638884132756   -3.41145376409575
C        10.54535265171717    5.79437544932471   -3.78785560173907
C        10.40247690896528    6.96927645375279   -3.06489168114551
C         9.57792265781100    7.00883180710954   -1.95561804452476
C         8.76009509588438    6.36167888220178    1.32641431972852
C         8.09121424071898    6.26851389091853    2.54577025692226
C         8.71947501444412    6.63319703138827    3.71979118656791
C        10.02838772120663    7.08892358917117    3.68329971377061
C        10.70126902133432    7.16898276033367    2.47627246826639
C        10.07397504020984    6.80614509737976    1.29619613786675
C         6.80987766052114    7.37461045027337   -0.49427600973102
C         6.54207295051108    8.36075043009762    0.44723275361299
C         5.76073113579219    9.45046855519701    0.10094423816933
C         5.23907165835320    9.55941329151563   -1.17712841927072
C         5.49917150249426    8.57452940408399   -2.11833635276637
C         6.27726786164605    7.48471327475476   -1.77849939574289
H         4.30692722741390    5.73627432842411   -1.19597258697369
H         4.10479284049560    5.59633642882882    1.40773485820731
H         4.40891384334445    3.08956333338580    2.24419147351367
H         4.83391861898635    1.48152590128626    0.22709553611184
H         6.95737771501972    3.62790677717681    3.29102614522392
H         6.06716744186673    2.50578617394151    5.31067424591322
H         6.12089877632989    0.04440077982189    5.46979170106879
H         7.06099960139420   -1.28901018472240    3.62274178237760
H         7.96287635871981   -0.18100681582702    1.62560092558351
H        10.33018855291641    0.77947106629061    0.84174349739628
H        10.91989382148769   -1.00309364152105   -0.75415926139635
H         9.56397081616423   -1.34691635559026   -2.78398538532614
H         7.60799645331459    0.09154692040340   -3.22072064663845
H         7.01076506045812    1.87660682981596   -1.62618731206043
H        10.48130799642337    3.50653244781739   -0.57412329470689
H        12.70603358599600    4.32838952344807    0.06769997649165
H        13.27697762336159    4.61624551925241    2.45328578817298
H        11.60585428140633    4.08753023846976    4.18743967520779
H         9.38450817305079    3.26525173617939    3.55582982255606
H         8.46592892663960    3.81288331265111   -1.99766386021063
H         9.94609731246169    3.74655593161696   -3.98499679828628
H        11.18905586819623    5.77127880386363   -4.65368765736232
H        10.93032054257042    7.85925980099651   -3.37243828509899
H         9.44116317612288    7.93151988835047   -1.40827848323856
H         7.06647650271682    5.90685079342097    2.55079979398714
H         8.19555160640160    6.56535992016978    4.66157627745420
H        10.52384593178006    7.37723075420221    4.59751225791378
H        11.72258766758811    7.51704676258474    2.45075913209977
H        10.61121567291568    6.85913075583167    0.36148993238675
H         6.95325620568834    8.28576571428787    1.44359230810906
H         5.56206953494421   10.21885103683342    0.83266917236161
H         4.63265874943127   10.41158020743802   -1.44232709860531
H         5.09646578750269    8.65939213214348   -3.11655134197649
H         6.49043719315316    6.71418826319686   -2.50966142795270

