77
CSD_code = FERMUM | q = 0 | S = 0 | Stoichiometry = C34H40Si2Zr | MND = 14
Zr       15.20076208856641    0.21070878620775    3.30949261037822
Si       12.99689293147171   -2.48479469549987    7.11311783280270
Si       10.72803038508552   -0.03453882066692    2.97823329527684
C        13.44350349021186   -0.73991791394378    6.58801190198642
C        13.23698768403550   -0.18322373619952    5.40266318632633
C        13.21481146638594    0.31286303608707    4.22393011277374
C        12.20287398401272    1.11593198452620    3.45366944906111
C        12.81843848418403    1.70127908581661    2.20079395151064
C        14.05082562105783    1.30942148133183    1.80840893182875
C        11.97928968334729    2.63030637582266    1.41712463454996
C        11.83157443652343    2.44610767187798    0.04277762720925
C        11.06916189868302    3.31760799165376   -0.71024490607167
C        10.43929938127072    4.39312755506587   -0.10547535898474
C        10.57984699991148    4.58887003728827    1.25767967110322
C        11.34012428164346    3.71505590506508    2.01282999650852
C        14.75589676648865    1.94713353103828    0.69163706293139
C        15.44244836368043    1.18495964193689   -0.26419946762337
C        16.16916590220954    1.79043549135162   -1.27200458485985
C        16.24704266521688    3.17158796447190   -1.34900148135577
C        15.57901099558936    3.94290487144331   -0.41084173325132
C        14.84296630654509    3.34374577546744    0.59105773612742
C        12.57511481609125   -3.64359685780942    5.65472035778131
C        11.48573689693890   -2.43725506764484    8.28692055166112
C        14.46625899078645   -3.23042616690480    8.08890400693224
C        11.43973644075547   -1.29656064208775    1.73011488543307
C         9.29387854850248    0.92599272596654    2.16018095220977
C        10.04838413171364   -0.84377049180260    4.56752044289048
C        14.63374462176114   -2.19375613540316    3.04481308309546
C        15.66996468919541   -2.16490913800944    4.00313096871841
C        16.84868863385064   -1.74969564673770    3.35462133012005
C        16.54383820347385   -1.48054936479632    2.00522746340351
C        15.17178129159085   -1.76979141092072    1.80712581208814
C        15.72493711593669    1.82434468857631    5.17759298340069
C        16.80382524998582    0.91714577685424    5.09849577725412
C        17.47461892943574    1.14840449544944    3.87627350964977
C        16.79813464250131    2.17727034988301    3.19129954951663
C        15.71959928676941    2.60064658290052    4.00094561630079
H        11.81810573246799    1.92773308919382    4.08393984045091
H        13.86668968442388   -0.11014779673355    7.36631569764534
H        15.37633533090958    0.10297558459186   -0.23026380098931
H        16.68078202908298    1.18129124187458   -2.00431562382784
H        16.82057810277287    3.64209781638059   -2.13357533157304
H        15.63142657023405    5.02105778274860   -0.46432009560152
H        14.32551377445523    3.95529634045280    1.31717529315669
H        12.31598370978578    1.60348086407062   -0.42906275963584
H        10.96278510564355    3.15790380890072   -1.77367276604105
H         9.84342926407868    5.07550117619652   -0.69367871476060
H        10.09559274663197    5.42925941475971    1.73461175860951
H        11.45562208849111    3.89062369457259    3.07306098266499
H         9.55125337905826    1.28035011469263    1.16793435335801
H         8.99904753288105    1.79030991795022    2.74682442930899
H         8.42403131309999    0.28343404916517    2.06607792237962
H         9.53834729116770   -1.77588271122152    4.34690466420925
H         9.33132110756521   -0.19133327230153    5.05627358918209
H        10.84095172703677   -1.05285406107343    5.27866299100196
H        11.48402639479550   -2.30085122163938    2.13925573847908
H        12.44923150600738   -1.00131954537653    1.44150339705459
H        10.83465418560979   -1.34374522455687    0.83003916873051
H        11.98786558053930   -3.13023934251813    4.90026177016685
H        11.99344784212321   -4.49463115810672    5.99730813256267
H        13.46791373190438   -4.03317471917569    5.17643899804264
H        11.66103233362649   -1.77018388593921    9.12558439467271
H        11.26873808003262   -3.42091095884654    8.69297911888378
H        10.59378333348542   -2.08905996778461    7.77467029286235
H        15.36269560947989   -3.31538431399482    7.48025467343190
H        14.22902522536935   -4.22437723867239    8.45759892498759
H        14.71489744967706   -2.61607563900529    8.94952843259683
H        13.64160686719518   -2.59132518887362    3.20068553665071
H        15.59492969397041   -2.52222926261729    5.02254985664276
H        17.84047309327049   -1.75975156712488    3.78853030211937
H        17.26370856218931   -1.24715933506970    1.22763324112068
H        14.66798051641001   -1.84023201867839    0.85015236800909
H        15.09186351010717    1.98496910801430    6.04149733741547
H        17.14003768167282    0.26724995496735    5.89927398861756
H        18.42617422837384    0.72325346485879    3.57895680637627
H        17.13243625382145    2.65665024580800    2.27822450945947
H        15.07248552511711    3.44626504225590    3.80533282289055

