31
CSD_code = FERPUN | q = 0 | S = 0 | Stoichiometry = C15H9NO3S2W | MND = 9
W         8.43695688862991    5.47425834538941    4.36673463037203
S         7.38975500779867    4.44630522593936    6.50723919461161
S         4.42925255387147    4.36643650096656    7.12524351010627
C         7.21816427098121    4.08976231117277    3.60002129461853
O         6.63441820604031    3.26228061965749    3.06631441046038
C         9.90643186638496    4.34280544505824    5.05385097329096
O        10.79758941797379    3.70884625931292    5.40148531815912
C         9.36189090526050    4.50852219601919    2.91368223465010
O         9.90991542013551    3.88879477411567    2.11027560820715
C         8.89981679325406    7.44830997973466    5.47796306682687
C         7.48333476496972    7.41340263112107    5.31911495402179
C         7.18675695586853    7.46067669853483    3.94678016455428
C         8.41147431733056    7.50972815664566    3.23526573091935
C         9.47406310521118    7.53589692583313    4.19265417586906
C         5.76923594003761    4.68105000778264    6.02610244663061
N         5.43693943037727    5.10635127708505    4.84985886524041
C         4.08344503982113    5.20296143014625    4.70045068465945
C         3.41676278406930    5.61437683799552    3.55071255858777
C         2.03840828592165    5.66691627070330    3.56489381378321
C         1.31655099071184    5.31814052198923    4.70296597725703
C         1.95941565818075    4.90352974212635    5.85485999203763
C         3.34079334654039    4.84695073342984    5.84616099924232
H         9.41973032603647    7.57951524896891    6.41878150222697
H         6.76334426409601    7.48392993810176    6.12450357728921
H         6.19941209060954    7.54958963222967    3.51687947574160
H         8.51988109277031    7.70025883789375    2.17382143849689
H        10.51576306980798    7.72899235428298    3.96932809273416
H         3.98466809564783    5.87306569941214    2.67074940777262
H         1.50932326679602    5.98249196766926    2.67830051007216
H         0.23863822208012    5.36890400708954    4.68672256786692
H         1.40496762278380    4.62864942358476    6.73808282368815

