86
CSD_code = FERWIK | q = 0 | S = 0 | Stoichiometry = C46H28F3FeN5O3 | MND = 6
Fe       11.22972160452489    2.60518356417082   12.05953855048833
F         7.59531439890291    5.52706621342793   11.62643758801803
F         7.55307015404886    4.39308219485568    9.79364174466878
F         6.04505933643448    4.06858107658371   11.29619774888947
O         9.48397049818939    3.42717446414050   11.48813545008044
O         7.77446772008036    2.36256070762154   12.47568143953620
C         8.27636648948326    3.21819114680416   11.78572382146035
C         7.34854431839485    4.30503602483128   11.11865149930449
O        13.65806467195087    1.60835393635329   12.77852781864153
N        12.62516667899147    2.03556388692951   12.46891816305254
N        10.46452952986251    2.44954553112097   13.92639006757885
N        10.46584095727045    0.78939770863406   11.59231603010672
N        11.77942987605975    2.85766775576041   10.12090172054703
N        11.76257169026636    4.52545848161035   12.45094385033037
C         9.81477898210825    1.37210608912239   14.44472290886031
C         9.46465141423876    1.63012510895965   15.81075860029681
H         8.95851494864204    0.93852302198906   16.45482410397848
C         9.88150073942652    2.88667130151464   16.09301606117327
H         9.77256997829690    3.43149367590915   17.01001179653740
C        10.50369049237981    3.39563937585274   14.90496446429978
C        11.01030266957294    4.68747996063038   14.78580877689301
C        11.57617262786513    5.19788679732770   13.61974602304436
C        12.07979392799688    6.53438815294135   13.49251416715067
H        12.06808232690267    7.27216163446770   14.27027839732486
C        12.55248467122503    6.65770409573355   12.22978616472729
H        12.98661627467708    7.52225105924380   11.76772075851450
C        12.35139491421594    5.39329586499744   11.58356510128040
C        12.69676757276420    5.13542660921053   10.25858706633649
C        12.42390814672143    3.93801610945975    9.60086559971472
C        12.79340564219188    3.66910618573551    8.24147313578590
H        13.34077177969234    4.33949568427773    7.60865204709022
C        12.33447238236591    2.42985590347666    7.94637562664557
H        12.43381962360140    1.88936676290851    7.02577750989119
C        11.68444307319684    1.93491680065382    9.12492810861201
C        11.06252259987214    0.69056910295335    9.20774523824359
C        10.47421339036758    0.19197158849531   10.36843467036971
C         9.75714973201713   -1.04867311201421   10.43263230596045
H         9.59065120144655   -1.70544363368288    9.60164973378627
C         9.32933779582480   -1.19014051554394   11.70923285014645
H         8.74608767787968   -1.98527262198344   12.12975512564560
C         9.77664082815124   -0.03398497500382   12.42885968013256
C         9.48482829323596    0.20103100294531   13.76898171581062
C        10.91279480575331    5.58288353725109   15.96077212443592
C        10.07293010275144    6.69175387659085   15.92968756910301
H         9.48708894457023    6.88625246005106   15.04335799988746
C         9.97860271632491    7.52625388149571   17.02885403725812
H         9.31964435666415    8.38124840835148   16.99740213863427
C        10.72534303207445    7.26730018361725   18.16623865127761
H        10.65269157182340    7.92125022566178   19.02240843372965
C        11.56458082440534    6.16629629321472   18.20280429112815
H        12.14969149876350    5.96104881478542   19.08722373506725
C        11.65606806188207    5.32536234842272   17.10816343939662
H        12.31257230416755    4.46763348549821   17.13250515738234
C        13.36570357412197    6.21140903290233    9.49473351717537
C        12.73673853505278    6.79243985561153    8.39761214701222
H        11.74970544859794    6.45659178113188    8.11595826301098
C        13.36152555078413    7.80155995472162    7.68740773248825
H        12.86213886399676    8.25020681568371    6.84139214055741
C        14.62269370559243    8.23699735569114    8.05907664782524
H        15.11045208177177    9.02301116721622    7.50211554782371
C        15.25571885459629    7.66192987395922    9.14843391614769
H        16.23990384723050    7.99711135535279    9.44112183561634
C        14.63059550602004    6.65777911610942    9.86554031924770
H        15.12435520305741    6.20438271244452   10.71282280962385
C        11.00559503446861   -0.14152708707658    7.98664521476104
C        10.32102357072375    0.30570109555389    6.86031574216692
H         9.82148695651438    1.26278465788463    6.89116073000554
C        10.26486548227529   -0.47571924621958    5.72046900530952
H         9.72545769089319   -0.12211265603399    4.85427321069811
C        10.89651220571057   -1.70790285647811    5.68870027162590
H        10.85386142536578   -2.31583359255545    4.79735473774808
C        11.58209249144090   -2.15838952508154    6.80457955683210
H        12.07790101658639   -3.11773173069758    6.78395806400777
C        11.63407020857719   -1.38283208359709    7.94861996692938
H        12.17336639394691   -1.72958213680296    8.81814018921690
C         8.69887137621577   -0.82082369987299   14.49495818542764
C         7.38039695952497   -0.54729928608034   14.84597493287939
H         6.95489198051753    0.40489505402382   14.56793961123187
C         6.62997482800359   -1.49619640047335   15.51621271435670
H         5.60532167806214   -1.28090405489305   15.78048763682161
C         7.18891050879242   -2.71991290074421   15.84791325850314
H         6.60255928048795   -3.45828068545617   16.37457167250681
C         8.50038966909628   -2.99645297339957   15.49949381004256
H         8.93867410084235   -3.95000304940311   15.75521048174467
C         9.25275045289739   -2.05370150394593   14.82093868508243
H        10.27639566772471   -2.26610759784702   14.54787663731977

