48
CSD_code = FESBOV | q = 0 | S = 0 | Stoichiometry = C17H26N4Zn | MND = 4
Zn        0.16296366645107    0.16301062745799   -0.00001514836035
N        -1.98196858236342   -0.13816727134366    0.59683716616762
C        -2.43985422793800    1.17083440229677    1.07681978749747
H        -3.51724784693165    1.12654826591268    1.30862718703712
H        -2.29622808721607    1.90028163206650    0.27574018564775
C        -1.68030187482304    1.60947776555417    2.32118656546809
H        -2.05019560819475    2.58591714034443    2.63759799009600
H        -0.61700039873422    1.71458827138498    2.08557384756214
C        -1.86031241874278    0.58060461836631    3.43053546519968
H        -2.90921975165524    0.55398630506972    3.73911563479637
H        -1.25997630806005    0.85135349804740    4.29933692088525
C        -1.43863789122831   -0.78966439046605    2.91184551883599
H        -1.63120938341697   -1.55518759809991    3.66602091577677
H        -0.36793582256783   -0.77681760426892    2.71163506127860
C        -2.21442484272740   -1.14007051472663    1.64272856627826
H        -3.29148490802902   -1.13281948209541    1.90295633781852
C        -1.89736600897454   -2.54982595655204    1.12440678140456
H        -2.03751588939783   -3.24453958323084    1.95992693515288
C        -2.87512568151860   -2.87516315651585    0.00000971484907
H        -3.90663619037623   -2.75286323938872    0.33663246113002
C        -2.75495029449538   -0.47150103373084   -0.60637293848999
H        -2.49923360785445    0.25228784621911   -1.38233056864587
H        -3.83066282087277   -0.35769628935171   -0.38983960713558
C        -0.12001603923112    1.57331644333852   -1.34250895710689
N        -0.37536250163362    2.36300973579896   -2.13954484604181
N        -0.13815858743725   -1.98194178616075   -0.59682459669455
C         1.17083459737329   -2.43983198600206   -1.07681171476268
H         1.12652206914524   -3.51722328552116   -1.30863127415528
H         1.90026913991426   -2.29621305713176   -0.27571896214238
C         1.60948377256554   -1.68026113521540   -2.32116324876773
H         2.58590925329883   -2.05017839127786   -2.63758649033152
H         1.71461509633903   -0.61696704597735   -2.08552475865698
C         0.58060056977529   -1.86022174481316   -3.43051345480057
H         0.55396321023630   -2.90911741090053   -3.73913099111865
H         0.85134030700965   -1.25985231288574   -4.29929258064527
C        -0.78966477739861   -1.43856321276853   -2.91180308187337
H        -1.55520058259312   -1.63110622418364   -3.66597335733036
H        -0.77681574998302   -0.36787051122702   -2.71154397485248
C        -1.14005986694869   -2.21439600512160   -1.64271322405813
H        -1.13279758993455   -3.29145147062501   -1.90295924291503
C        -2.54982255241329   -1.89738152929504   -1.12438137686261
H        -3.24453685229810   -2.03754210813729   -1.95989805550040
H        -2.75276998374089   -3.90666297509308   -0.33662282031037
C        -0.47147828053302   -2.75490997353006    0.60639990924922
H         0.25229576432211   -2.49917308254453    1.38235974419251
H        -0.35764195416222   -3.83062224983722    0.38990442990849
C         1.57342277891060   -0.12010955384479    1.34228910874924
N         2.36319353907275   -0.37570337996829    2.13921903652703

