72
CSD_code = FESDOX | q = 1 | S = 0 | Stoichiometry = C33H33CoN5(1+) | MND = 5
Co        8.49304576957816    1.24808622788844    2.42110142788780
N         7.36929093105805    2.68960434040251    2.49208144673834
H         6.36295007227337    2.71814479001868    2.64628920441470
C         7.92767184732877    3.88710637014167    2.38877636269228
C         7.28457499352858    5.14192434182147    2.46246670248970
H         6.21332252787268    5.18197488725446    2.59335695808384
C         8.03373157835026    6.27884679622667    2.35588546464694
H         7.55866713716834    7.24601928089197    2.40571935139640
C         9.43291782246663    6.21253685429973    2.17899906841568
H         9.98997328599276    7.13282544315622    2.09806904342496
C        10.08886873307239    5.01619086974900    2.10476797325468
H        11.15731547636015    4.97647543739533    1.96106226335788
C         9.34838075805808    3.81452954793276    2.19974688938086
N         9.81432309942426    2.56199462261717    2.14546768349250
C        11.22032187508093    2.45621505787149    2.03636278318441
C        12.01158735821605    2.43285723657763    3.18156372075292
H        11.54065337217821    2.44655084245676    4.15422363024806
C        13.38923068636476    2.40703238764172    3.06950581719674
H        13.99634907828446    2.39855659691488    3.96194963946738
C        13.98827368280345    2.40454322739015    1.82139121386539
H        15.06354113673614    2.39108959618714    1.73751492000712
C        13.20304565781028    2.42888790736374    0.68102137063778
H        13.66457198579370    2.43569305168499   -0.29427131915444
C        11.82514618994042    2.45805515463461    0.78312975564106
H        11.20561790632632    2.49480088823015   -0.10037174942609
N         7.03962525293210    0.14577305644458    2.24571769908400
H         6.06023317590575    0.33034238307070    2.45492349363249
C         7.27974034595837   -1.10060130950569    1.86738983237566
C         6.34291352647918   -2.14795917913601    1.72647462686308
H         5.29927108065289   -1.95607813677643    1.92706201638253
C         6.77895350213621   -3.37961754162743    1.32982500283060
H         6.07683706218765   -4.19002286718665    1.21189703495771
C         8.14694034797448   -3.61722298561923    1.07408801015333
H         8.45484554431345   -4.60675737574350    0.77445397800746
C         9.08074471302055   -2.62754473490398    1.19903447034800
H        10.12352502918201   -2.82298335749188    1.00385519175487
C         8.66850140266948   -1.33156841433047    1.58919375210417
N         9.43308481388659   -0.24714126601243    1.77151679292034
C        10.80211357568860   -0.42219394354510    1.47988083181663
C        11.73853584176606   -0.53595106026476    2.50249177527539
H        11.41591981114588   -0.45370542120576    3.53036392074307
C        13.06635701946443   -0.77140539635422    2.19819298204144
H        13.78585386007750   -0.86775232397352    2.99678608492012
C        13.47276146592382   -0.89381360233782    0.88034990689942
H        14.50951974639783   -1.08150996096402    0.64966478882504
C        12.54319076438447   -0.78010956938728   -0.14010461788505
H        12.85223393039784   -0.87863404120103   -1.16931325039246
C        11.21356565644301   -0.54874853583547    0.15417006308193
H        10.47946206190652   -0.46398710505940   -0.63379128501756
N         8.84279930868077    0.98864224050478    4.33491494462662
C         8.90018119829006   -0.23135529337545    4.87526907801281
H         8.71901643829838   -1.07308645276344    4.22024991784678
C         9.17474757829061   -0.45630936967157    6.21037266521196
H         9.20367544066986   -1.47451621027166    6.55911847343821
C         9.40741097636455    0.61167073514051    7.07440961236514
C         9.32851715601303    1.88022792887217    6.49620922135748
H         9.48509186956558    2.76892558368549    7.08584012812748
C         9.04829797445447    2.02615378214653    5.15433657733131
H         8.98497360162320    3.01728827722749    4.72514369827655
C         9.72767524613339    0.44996038201023    8.54287082207713
C        11.11523049626812    1.05509256641241    8.80622163505639
H        11.87098657156317    0.54899979151950    8.20928021602430
H        11.37144379382032    0.93472736864609    9.85520573568876
H        11.14196874665057    2.11544304559541    8.57098844202225
C         8.66733694985093    1.19768341956890    9.36514608784640
H         8.66573431482886    2.26213128666421    9.14858757510834
H         8.87204527589174    1.06951247600010   10.42447107395858
H         7.67572049687551    0.80131963000963    9.15813531455409
C         9.74043027921574   -1.01672131494307    8.97861318735929
H         8.76906354508800   -1.48141340569490    8.82653684931716
H         9.97286925606809   -1.07332233058230   10.03872775436281
H        10.49888099252811   -1.58240320450096    8.44251826622289

