106
CSD_code = FESFIT | q = 0 | S = 0 | Stoichiometry = C44H50CoF6N3O2 | MND = 5
Co       -0.25904739245950   -8.26343402582301    4.42592645752381
O         0.10264192296334   -9.93674316817100    4.99865144613582
C         1.31358849956351  -10.14055355770121    5.40469936732031
C         1.81892915277869  -11.33090664963624    5.98399979060225
C         3.14250756121834  -11.32403753631558    6.35144564997953
H         3.55421716614308  -12.21510877136315    6.79287910917050
C         4.01130719543915  -10.21863200048558    6.19534895927428
C         3.52303300421176   -9.06077496207826    5.64412795298542
H         4.13232880594527   -8.18457142290702    5.49831949135116
C         2.17779245209983   -9.01290145822279    5.25532230829296
N         1.51750983972618   -7.97048890982822    4.72285228577040
C         2.15668822124538   -6.74067290469769    4.54419621390078
C         2.58256333249993   -6.34509832950797    3.27086677440747
C         3.14819889664147   -5.09423140603058    3.07039570956989
H         3.46452751458007   -4.80503190023733    2.07998781526928
C         3.29832546006758   -4.22833437870524    4.13796379983321
H         3.73161281124393   -3.25325061297888    3.97976310547917
C         2.89804911476068   -4.61849888819443    5.40652452113387
H         3.02332842532131   -3.94643593125526    6.24212151872405
C         2.33526024050402   -5.86296333327105    5.61262213698906
H         2.01749681666133   -6.17642670290099    6.59556274550969
C         0.90061540078241  -12.52855776248032    6.15543801932690
C         0.44294706776825  -12.98902541291234    4.76529552306114
H        -0.04664134741066  -12.17258188367508    4.24463216550226
H        -0.25957564756749  -13.81532958853179    4.85357854950148
H         1.29560144917039  -13.31582880933838    4.17369912120936
C        -0.31789419450632  -12.10381864151612    6.98664813707170
H         0.00293231202701  -11.70235782167886    7.94547591215629
H        -0.96831041835556  -12.95842584404380    7.16211010202627
H        -0.88504477260319  -11.33903261894301    6.46474412240186
C         1.58440777486708  -13.70196784152936    6.86101976986062
H         2.43021461259023  -14.06943246773554    6.28450497622638
H         0.87382439085407  -14.51880854430281    6.96913289694332
H         1.92267802156681  -13.41515918899306    7.85386278823870
C         5.45143267214969  -10.36146831508349    6.65872564040787
C         5.46363300332598  -10.68651160055970    8.15932215338638
H         4.98754538776086  -11.64074088635436    8.36468508862500
H         4.93270181313732   -9.91510721633606    8.71224324683159
H         6.48813787852452  -10.73302729036640    8.52264079105787
C         6.26332894345521   -9.08174630825800    6.44222073823369
H         7.28156181319826   -9.23391010202823    6.79455054317583
H         5.83511974392755   -8.25087486824061    6.99756336922522
H         6.30761804290383   -8.82190590960705    5.38736402607671
C         6.12427981091170  -11.49352664983062    5.86933856351303
H         6.09636991305927  -11.27438551672214    4.80423825906457
H         5.62721404199463  -12.44510164251122    6.03438096809484
H         7.16340723896977  -11.59484138175737    6.17529759450771
C         2.44406783643033   -7.31572096221821    2.13477202266209
F         3.21515079711740   -8.40797527211994    2.30742317065029
F         1.18877813131977   -7.77050615746011    1.96430615186169
F         2.80885620236344   -6.79218118858082    0.95373323998746
O        -0.57187999155788   -6.62946678775103    3.73772613971478
C        -1.75857301990495   -6.44073222200140    3.24486254446941
C        -2.26986532376809   -5.22708327240444    2.72728849622154
C        -3.55972849035675   -5.25470266922357    2.24751376150617
H        -3.97175012625059   -4.34791037379790    1.83979224492728
C        -4.38387139317713   -6.40078079907059    2.24283390612477
C        -3.89136060716118   -7.57797906627041    2.75490102816048
H        -4.46630317882124   -8.48907300539079    2.76779979867047
C        -2.58682221522427   -7.60041834090177    3.26274750402639
N        -1.93051635738112   -8.65144676567280    3.79845478458574
C        -2.56189991257762   -9.89025461616163    3.92863942946417
C        -2.23373967004657  -10.94302223153359    3.06517820235046
C        -2.79357974251608  -12.20062537966296    3.23493783531894
H        -2.52271460361853  -12.99946449862887    2.56184430275120
C        -3.69056579415154  -12.42300520484087    4.26362961271569
H        -4.11765066749236  -13.40390072459624    4.40040269677172
C        -4.04379689498073  -11.38282932711989    5.10799896019427
H        -4.75229256663474  -11.55124135452852    5.90515813630148
C        -3.49110695373208  -10.12820230070669    4.94084849155513
H        -3.76623256550772   -9.31604059104339    5.59719021856339
C        -1.38332132172873   -3.99334387401870    2.68970173392392
C        -0.19412554628711   -4.29022137426255    1.76709355855190
H         0.34444583270057   -5.16200726432542    2.12353849176113
H         0.48906877105989   -3.44366058558081    1.74686100537715
H        -0.53964632142525   -4.48653155283720    0.75428391628383
C        -0.87171429921546   -3.69314805576779    4.10565871158789
H        -1.70763741324383   -3.51849458546507    4.78078634376773
H        -0.24320695825634   -2.80514583811451    4.09520606088665
H        -0.28194104669620   -4.52428338012840    4.48062373634555
C        -2.11328793821607   -2.75400211082047    2.16649851655094
H        -2.44326580062294   -2.89573193482447    1.14012252960102
H        -1.43410443589999   -1.90425590702542    2.18435201009210
H        -2.97168979076759   -2.51273165039848    2.78958779595988
C        -5.78304668344538   -6.28372619931218    1.65962164267851
C        -6.57161148382212   -5.22143383535698    2.43918368831563
H        -6.63767970373494   -5.49772130212525    3.48950770668051
H        -7.58018283041710   -5.13897166176959    2.03987012819691
H        -6.10013330447336   -4.24521597066666    2.37288955623393
C        -5.67440738715441   -5.87601506759424    0.18337030771069
H        -5.19585316878311   -4.90731955047244    0.07203751324844
H        -6.66524831584937   -5.81959675057844   -0.26237151936529
H        -5.08879781322282   -6.61069402002759   -0.36478153947955
C        -6.55983780194811   -7.60118852383880    1.73274087066240
H        -6.05860067481844   -8.38118034660852    1.16492544291013
H        -7.55204416478882   -7.46103195795987    1.30863778387788
H        -6.67789767827558   -7.92942848429695    2.76288858263571
C        -1.30026764936769  -10.67072549653962    1.92178005426419
F        -0.11901305685665  -10.14582479983494    2.29682599716588
F        -1.00521081923973  -11.77345686987927    1.21619591635932
F        -1.83129431806234   -9.80007894926772    1.03979259798788
C        -0.87300930288335   -7.70655740561049    6.24047002920002
H        -1.02088495744427   -6.62391228377933    6.23505450918104
H        -1.81142164612836   -8.21754633991312    6.46443978933654
C         0.09893587723383   -8.06537437235927    7.19984310440715
N         0.89206626606558   -8.35820762330549    7.97949052257161

