54
CSD_code = FESFAN | q = 0 | S = 0 | Stoichiometry = C28H16F4IrN3O2 | MND = 6
C         4.85201383441470    0.88704996352267   20.98227585099404
C         4.80653369469135    2.32703998038811   21.54341836302799
C         4.06545713333192    2.60340194780507   22.68509311839029
H         3.54329242399284    1.78620059211906   23.15821533708855
C         4.02716128119869    3.89932377779236   23.16390571611640
H         3.45961435936764    4.14771887781589   24.04833595257026
C         4.73770922066295    4.87767227707161   22.48030081887464
H         4.73954905911922    5.90311679352569   22.81453508775316
C         5.45297798607823    4.51818532089585   21.35280920352926
H         6.02440637813249    5.24929845512896   20.79609688442119
C         3.82201524212277    2.44305150234112   17.90182935064232
H         3.82622648400929    1.44947326246351   18.32927553518899
C         2.72526526523404    2.91658314176811   17.20693923387498
H         1.85167351892003    2.29674288982273   17.08858536041608
C         2.78380538856981    4.19454310927702   16.67003837095698
H         1.94856375423287    4.60022518847509   16.12021730297725
C         3.93381349151093    4.94321674257545   16.84042502288179
H         3.99581818204195    5.93137862935928   16.41940707158534
C         5.00766499797754    4.40838618674378   17.55109050086158
C         6.29333615465006    5.05524822758244   17.79142330755867
C         6.65060603122632    6.34413148852948   17.39564975691688
C         7.89790502307881    6.87541089536903   17.65268731211313
H         8.15014027846988    7.87368283792140   17.33632154420990
C         8.80669198487259    6.07738954426811   18.32506110992375
C         8.49652288142891    4.79692236044809   18.74227883735455
H         9.25159555860237    4.22637699411629   19.26109147312181
C         7.23899748872949    4.25829129270391   18.48889164070805
C         8.35018919661338    1.96560846195207   21.38843341392969
H         7.75599886995041    2.71671918499464   21.89121071658276
C         9.32064344444515    1.27432613481908   22.08677526582499
H         9.48080585535492    1.47505512552657   23.13365560228423
C        10.06440995968454    0.31914362788751   21.40977193624779
H        10.82069726446563   -0.25590160199912   21.92127421939766
C         9.82295214928154    0.11714452630061   20.06499928302456
H        10.39336115868991   -0.61868027172110   19.52636517788204
C         8.83400390936885    0.85725694921253   19.41552675792732
C         8.48917876338423    0.75725239959544   18.00264805628137
C         9.13883836960633   -0.03275642140657   17.05305394084952
C         8.75058942492471   -0.06423738867831   15.72956920507659
H         9.26804570027750   -0.68378694104856   15.01619175445529
C         7.67809256127865    0.72607447933830   15.35870579569111
C         7.00611712362235    1.52775537121834   16.26190477068927
H         6.18220225652259    2.12419518252736   15.90121509441129
C         7.39535112843983    1.55835865402943   17.59545911935121
F         5.77253988125683    7.14222744323831   16.74822791114643
F        10.03020817611732    6.57672593183717   18.58689783152483
F        10.19526397642066   -0.80455910477938   17.38997896504761
F         7.28361564121064    0.71466657745771   14.07068322023504
Ir        6.49412614999443    2.50245575547994   19.12489821489219
N         5.48784532338265    3.27090083580799   20.89230902446719
N         8.09623507130400    1.76539466479596   20.09794107370843
N         4.92556775327284    3.16350591999914   18.07974154540444
O         5.48812201846954    0.74659116755957   19.90203021231512
O         4.26624177599195    0.02390105622301   21.61343282729422

