59
CSD_code = FESFUG | q = 0 | S = 0 | Stoichiometry = C26H29ClN2Ni | MND = 7
Cl        3.22236475127939    7.45591361909997    5.35847754759092
Ni        5.26529861377838    7.37302526302502    4.95508113306172
C         5.43248131868810    5.27656650314593    4.91106136580160
H         4.75597105043953    4.52963917544057    5.30061733563012
C         6.56125598459093    5.78317568816940    5.56751835818116
H         6.89707465059332    5.52705738362086    6.55983864727499
C         7.18936769973011    6.67206136355925    4.66372082928689
H         8.14630458393568    7.15163265864845    4.81764672332778
C         6.55307269301582    6.54245497350571    3.37661857572843
H         6.92133741393515    6.96687779266987    2.45751334550927
C         5.46703032832398    5.70292120046309    3.53378503344495
H         4.80322145307861    5.34824675659266    2.76154933743917
C         5.47807875140940    9.24483719532917    5.21054607586467
N         5.14270113321489    9.98234932962020    6.29093679496093
C         5.34507180601675   11.31269282662817    6.04667635040067
H         5.15223142742769   12.06144579996035    6.78739433639411
C         5.81545458006443   11.41505419091431    4.78287041117232
H         6.09086147278394   12.26968537108786    4.19986070232478
N         5.88720929363879   10.14277254541855    4.28481114937977
C         4.66237032534546    9.48569755421318    7.53652085824249
C         3.32260557632476    9.66903763780502    7.87978123400872
C         2.36334453516971   10.31505179210655    6.93213680815642
H         2.73377127576530   11.27279217840513    6.57135466282409
H         1.40063299835462   10.46823901227616    7.41079282054295
H         2.22902293963869    9.65260551244734    6.07629119272753
C         2.89376372695446    9.18925617836289    9.10748124956835
H         1.85570644929588    9.30889649161367    9.38108789467874
C         3.75667942443479    8.54725467829219    9.98414171789623
C         3.26011842210583    8.04971188244019   11.30727135567788
H         3.93092883467002    7.29956619871466   11.71820043168954
H         2.26704355005105    7.61815965044687   11.20599084847099
H         3.19634617563097    8.87564197234821   12.01649990832741
C         5.08671308861942    8.39718590281340    9.62113289777055
H         5.77138531050587    7.90410376464955   10.29639637294710
C         5.55876314191288    8.86308818255009    8.40404995570521
C         6.99993007440701    8.70754393456678    8.02250648766105
H         7.07726151902863    8.08915724092176    7.12631162189011
H         7.56076994105541    8.23372122666473    8.82341115051434
H         7.44954393273794    9.67695897945355    7.80462771815074
C         6.37672850821402    9.83491131458676    2.98533680582211
C         5.48221118902416    9.46886883972536    1.97939657790048
C         4.02104162468377    9.35481764058448    2.26956039705474
H         3.46136755613204    9.13636008193437    1.36504027608863
H         3.63525715579272   10.27092805591220    2.71459641175093
H         3.85053577119944    8.54488275160159    2.98920209401429
C         5.99305989594599    9.18701620568831    0.72053421817342
H         5.31260236440757    8.89598117797878   -0.06646853824419
C         7.35280494050278    9.25784761186131    0.45445487442892
C         7.88534482258894    8.96166433170942   -0.91409547074871
H         8.06876205573079    9.89303970665328   -1.45061251838856
H         7.17547543974623    8.37275642176607   -1.48915547398929
H         8.82708881911506    8.42032875984319   -0.85361790373001
C         8.21756097003252    9.62123372331084    1.47860907454546
H         9.27947531038476    9.66901078889718    1.28401698206813
C         7.74924059527002    9.91391363832299    2.74978929433506
C         8.69344865642429   10.29160405027462    3.85167102092924
H         9.71591875280562   10.04615779296282    3.57684266753410
H         8.44059053926161    9.76656597807315    4.77157911200795
H         8.64269478478758   11.36193152032799    4.05310885821697

