101
CSD_code = FESFOZ | q = 0 | S = 0 | Stoichiometry = C42H48F6N2NiO2 | MND = 4
Ni        0.00006974945926    0.00000854203713    0.00009840195098
O         1.20187295049015   -0.27543931394704   -1.33716707580374
C         1.59267200424478   -1.50428274221941   -1.45627508341009
C         2.53624484537192   -1.98550943711174   -2.39856891015680
C         2.78133682208989   -3.33895820767355   -2.39668403598119
H         3.49577614403702   -3.72898414675397   -3.10098909281665
C         2.14962098974730   -4.26449238425209   -1.53494395592114
C         1.24079496592342   -3.80292562281707   -0.61363326480228
H         0.72415926581148   -4.45747680447665    0.06873635924439
C         0.96966714106688   -2.42859804216146   -0.55853637710821
N         0.09033994008505   -1.81268701349600    0.25652893356797
C        -0.75444185275610   -2.53131968477240    1.10015635184043
C        -2.08868827974434   -2.74658183197354    0.72265538407994
C        -2.97206840225349   -3.38759261099919    1.57916805803458
H        -3.99693367144430   -3.53620937745152    1.27545870686475
C        -2.53503626212867   -3.82396927904430    2.81636307507021
H        -3.22396068133279   -4.31699349092633    3.48400849785790
C        -1.21573016648669   -3.62629748747049    3.19470303399816
H        -0.87638330820400   -3.96716282605170    4.16136296082772
C        -0.33132960374460   -2.98870989469455    2.34762038538110
H         0.69243749955807   -2.81120624923263    2.64040929237974
C         3.22401810652132   -1.00553483172048   -3.33406320541297
C         2.15716193693800   -0.26567587080363   -4.15247107176250
H         2.62872381367590    0.44951245796709   -4.82347392495710
H         1.48025590652996    0.27148901605496   -3.49504085066673
H         1.58037957437327   -0.97264799852091   -4.74531912782846
C         4.19301878767661   -1.68766122802897   -4.30271171755821
H         4.99233796362305   -2.19508834372834   -3.76731947805965
H         4.64551531414290   -0.93550184764719   -4.94563557673668
H         3.67438858702276   -2.40362795836316   -4.93629987014071
C         4.00942753797995    0.00172127016983   -2.48370848067312
H         4.77888123584091   -0.50744774847758   -1.90691320581447
H         3.34103868936211    0.51200108492616   -1.79790568663740
H         4.48439026364655    0.74469608740728   -3.12105416879517
C         2.50572622127368   -5.73604984412191   -1.66942841692856
C         1.72929065538025   -6.61762543780784   -0.68746834957387
H         1.95001097629338   -6.34551701707876    0.34196122617866
H         2.01595296928129   -7.65766817069026   -0.82907220440633
H         0.65811602190355   -6.53724954299340   -0.85589247238140
C         4.00523117747457   -5.91956188659498   -1.39475227189924
H         4.61158194818469   -5.36482608624999   -2.10502520616049
H         4.27195451960940   -6.97171313718707   -1.46846391847238
H         4.24830122369303   -5.57047219569018   -0.39351723015011
C         2.17404448395717   -6.20398456010638   -3.09359066838102
H         1.11991386086840   -6.03774866152480   -3.30469294381057
H         2.38493510750373   -7.26646114450675   -3.19552438416347
H         2.75898961617090   -5.66927849097614   -3.83649584294048
C        -2.53500798543633   -2.29754691322856   -0.63797215034842
F        -1.99118635651862   -3.04328779886196   -1.62170966569403
F        -2.20531804026401   -1.01474282875831   -0.93818521500149
F        -3.86198781930904   -2.37534307604906   -0.80889766269616
O        -1.20176802798013    0.27546478826461    1.33733345930852
C        -1.59260742837701    1.50430154585285    1.45638645977976
C        -2.53625067918927    1.98553044180275    2.39860887678005
C        -2.78136601437924    3.33897548673964    2.39668249566352
H        -3.49583442549679    3.72900676716074    3.10095533698850
C        -2.14963993522294    4.26450085029479    1.53494046528415
C        -1.24076726752503    3.80292879969621    0.61367848985120
H        -0.72411005071721    4.45747209143976   -0.06868194676439
C        -0.96959445451216    2.42860776670559    0.55864240608976
N        -0.09020234850371    1.81269825010436   -0.25635167738373
C         0.75452723263498    2.53130481618986   -1.10004993091153
C         2.08881269077838    2.74653020849969   -0.72266736031938
C         2.97214264347385    3.38748937807730   -1.57927043901806
H         3.99703806318833    3.53607958598166   -1.27565104382886
C         2.53502296638208    3.82384993861852   -2.81643956308314
H         3.22391011693898    4.31682631352387   -3.48415822399736
C         1.21567537815647    3.62622529353918   -3.19465883638431
H         0.87625975469886    3.96707554127044   -4.16129959316310
C         0.33132376086060    2.98869210157302   -2.34748499139288
H        -0.69247436569423    2.81121867925448   -2.64018355125918
C        -3.22408720429479    1.00556332544663    3.33406471872578
C        -2.15728643739915    0.26572640438711    4.15256332007657
H        -2.62889946489211   -0.44943232905036    4.82356159728289
H        -1.48034174828517   -0.27146712106864    3.49519469774024
H        -1.58053754990784    0.97271523592451    4.74542417953239
C        -4.19317142357371    1.68769816050074    4.30262494092541
H        -4.99246611395546    2.19508689116293    3.76715892975823
H        -4.64569303173361    0.93554865379017    4.94554293798647
H        -3.67460462847177    2.40369920172523    4.93622690079094
C        -4.00941720032554   -0.00171764061828    2.48366476403161
H        -4.77882678324643    0.50744025307126    1.90680145331599
H        -3.34097012329967   -0.51200169459166    1.79792102944856
H        -4.48442795426849   -0.74468725774476    3.12098136108189
C        -2.50574346075212    5.73606073454620    1.66940485365127
C        -1.72938737470639    6.61761364432276    0.68735581425785
H        -1.95013290936887    6.34543835795267   -0.34205249642099
H        -2.01607954344998    7.65765492003221    0.82891228230538
H        -0.65820456993230    6.53728658332544    0.85574855895688
C        -4.00526466701496    5.91955307565303    1.39480969917501
H        -4.61157465495693    5.36489129485172    2.10517531029370
H        -4.27197456501288    6.97171287118101    1.46844224276275
H        -4.24840696356477    5.57037366140317    0.39362261234405
C        -2.17398960672777    6.20404418186484    3.09353518639471
H        -1.11982764036711    6.03789065891258    3.30454847400762
H        -2.38494984348156    7.26650686951205    3.19547744520446
H        -2.75882836488604    5.66929360226594    3.83649503061187
C         2.53522964442660    2.29754022062730    0.63794278198301
F         1.99152591696038    3.04336296993925    1.62168537439189
F         2.20550632634487    1.01477040546475    0.93825781295994
F         3.86222794344671    2.37528582930194    0.80874945095724

