67
CSD_code = FESFIV | q = 0 | S = 0 | Stoichiometry = C33H24F4IrN3O2 | MND = 6
C        -1.03739269973710   14.96154969386804    3.97487178465322
C        -2.31550921527134   15.29709274564612    3.44917677657496
H        -3.16120810710509   14.76475032870996    3.85974707423898
C        -2.48005020027694   16.24332429617432    2.47732174123534
H        -3.47192790529070   16.47216060483458    2.11295199307386
C        -1.37663952928257   16.91874632025532    1.94781849981421
H        -1.51216715276913   17.66353281007446    1.17876501611644
C        -0.12449024023191   16.62260280770454    2.41722714072336
H         0.74054411141890   17.13424872509465    2.02196412354824
C         0.07844831624239   15.67166162044943    3.43186879717374
C         1.42633161427439   15.43200212482634    3.85854751266776
C         3.65429963518819   15.50139437706664    3.60995964624823
H         4.28866216468861   16.38900216607193    3.67638173866077
H         4.13258728530137   14.76773678441419    2.95255677293199
C         3.28916774912902   14.92093757520450    4.99113828764074
H         3.69227339468271   13.91074785688600    5.12382670688788
C         3.77240101518436   15.79742398479138    6.15247997733787
H         3.19624391751169   15.53503122794282    7.04016184073688
H         3.57707322712676   16.84686944998563    5.91638081448558
C         5.25403576156893   15.59165523244753    6.43503161731685
H         5.44316811913097   14.55748858689874    6.71362889204728
H         5.57085961572125   16.22960462735114    7.25600473044685
H         5.85753648470424   15.82919073295002    5.56147100238078
C        -0.01188296569355   16.59864514778637    6.88881690017208
H         0.89789828481690   16.75369455489222    6.32696450518727
C        -0.78756791991508   17.67523878064225    7.27200521639730
H        -0.49064358390060   18.67771380808405    7.00957492793793
C        -1.95025053720180   17.42883942066218    7.98705879398994
H        -2.59200250892355   18.23999038871346    8.29474650574331
C        -2.27547275523810   16.12343680042901    8.30062207842411
H        -3.17487246566278   15.91630543830100    8.85323189889599
C        -1.44538023227149   15.08072813841654    7.88748462266825
C        -1.66910323968275   13.66333459698597    8.14486264085962
C        -2.68383376101990   13.12152725371446    8.93442463782554
C        -2.82429075597316   11.76239804092401    9.12461890434655
H        -3.61674734015727   11.36860412929954    9.73895922378031
C        -1.91206021597336   10.93211104850649    8.49886775581434
C        -0.88771574490855   11.42222909036242    7.71199792897551
H        -0.20724445489584   10.71773149516704    7.25896650809606
C        -0.74621620241457   12.79113951458967    7.51991769011071
C         0.88089190679219   11.58527731289320    4.37521448946056
H        -0.01892545586772   12.03852651411707    3.98218878273229
C         1.48064190427641   10.51218614792270    3.74387800136604
H         1.05735839925296   10.11121521707133    2.83727951931808
C         2.62828731715707    9.97112678661013    4.30566643692332
H         3.12736729802283    9.13381184818823    3.84250964455832
C         3.12447501458561   10.51629072936172    5.47552800769946
H         4.00957612524332   10.10140320971172    5.92533903190727
C         2.47158454467343   11.59840201942432    6.06546874219239
C         2.85464428398290   12.27060155899218    7.30235064758589
C         3.94385850392554   11.94706757470386    8.11098246673706
C         4.21899108744191   12.62115087189589    9.28252039133477
H         5.06699144861707   12.35324939724582    9.89018062923076
C         3.36092586671920   13.64418395200151    9.64649658778431
C         2.27534704888109   14.00628360891598    8.87312986925799
H         1.64580984135570   14.81462762501817    9.21352694394781
C         2.00268260193493   13.34044124541478    7.68081264767811
F        -3.58128650480590   13.91494592281141    9.56227219464458
F        -2.03009060271455    9.60003826383898    8.67122155046577
F         4.79594108503966   10.95299882594034    7.76788166465671
F         3.60762549174124   14.31270609785923   10.79101385672402
Ir        0.56284583963604   13.74071397814109    6.33136547673026
N         1.83616552389214   14.86477613744090    4.94631963123273
N        -0.32327175667698   15.33710909753190    7.17302415774326
N         1.35892025592208   12.12055478350035    5.49428634956145
O        -0.96256364274766   14.02856154560331    4.84336927825911
O         2.41074561082699   15.87512740071972    3.04186977410104

