67
CSD_code = FESFUH | q = 0 | S = 0 | Stoichiometry = C33H24F4IrN3O2 | MND = 6
F        -1.15130789725390    3.72213426026226   24.28117903446499
C         6.62393588623027    0.70930934409985   22.34424975658617
H         7.65951492196151    0.58462886732470   22.66941865402073
H         6.03307105736725    0.98237686314448   23.21787038811219
O         2.49226192216171    1.95167541362820   19.94908527945664
C         6.09634576168943   -0.59728116370078   21.76300385492916
H         5.07146531800730   -0.47323630699484   21.41988757451662
H         6.11167506866987   -1.37512717248332   22.52273301379022
H         6.70029850853034   -0.93066897082350   20.92176330771362
F         6.26396586320935    6.48639184426064   24.60078383778387
N         3.52484574822339    4.50046381214964   20.32269894218874
C         1.34214377852210    4.76442833089232   21.17974544680688
F         5.15544396053457    2.39113748675078   26.56224944102583
C         4.39958791204831    3.69740873262109   23.21102846874066
F        -0.35045507838583    6.30339267916707   20.47242272113889
C         5.08682443281836    3.21197552974680   25.48893057210150
C         5.38471137175284    1.73300715303392   19.46003459135528
O         6.64398780788104    1.45647938888548   19.04346898162262
C         4.43093034527875    2.81655489362684   24.32392228036394
C         2.96768842350307    1.79143180047040   18.77515390148701
C         4.35874219756752    1.68625450011636   18.45983959279625
C         4.51836327042723    4.80683616318619   19.49318043550509
H         5.47921094440591    4.35910383250297   19.70338898990911
N         3.27914955544352    1.39859293409131   22.84277313787553
C         4.75701245939252    1.50433180789734   17.12342940383338
H         5.81389494333786    1.43262725927702   16.91474618279580
C         5.70768897450566    4.43853359960720   25.60481868164269
H         6.20846896757598    4.72256464007877   26.51512567056535
C         2.48275269611281    1.50891636279374   16.39837033400483
H         1.75788139859587    1.44201736037256   15.59899329081381
C         2.06008084978025    1.68145044529236   17.68595580689288
H         1.00871866790107    1.75305318928940   17.92425034326626
N         5.28017010744177    2.02428304412473   20.71755249816435
C         1.75693893023740    3.78507010976421   22.11368764538844
C         0.89785711100300    3.45046769495961   23.15360233844804
H         1.17035664651930    2.71730923129800   23.89722987942042
C         5.02509256741220    4.93402273125872   23.33420132965549
H         5.02177662283826    5.64129310754333   22.51890365720605
C        -0.33558191550892    4.06299831509502   23.26291221733075
C         5.65980775679489    5.28391127765820   24.51030203933416
C         3.59193233999224    0.52077813214221   25.04044400261909
H         3.96857058227254    0.63437133442612   26.04202053407467
C         2.31873575366136    5.09144880183726   20.14738857517948
C         2.44361791268605   -0.76314612231916   23.38809172384369
H         1.91904048576880   -1.64922989905186   23.06951227803120
C         6.58434677089300    1.87587005845040   21.34439813082575
H         6.83236096924366    2.79763852858537   21.88319017231259
C         7.51961216973177    1.65157918974566   20.13858961165949
H         8.15429203523994    2.52065879538739   19.93016286877060
H         8.15381657832481    0.76933191419305   20.24612888064076
C         3.12395164611997    6.21084455744734   18.17798396902569
H         2.95686738061139    6.85397701781373   17.32779449697449
C         2.63762814555860    0.28328407222544   22.50667001261309
H         2.26147917312985    0.24295936897629   21.49345689270626
C         2.93138184104919   -0.63951470429765   24.68103872613041
H         2.79460231071767   -1.43182738277200   25.40072466144252
C        -0.76674537981326    5.01957231268355   22.36217223826829
H        -1.73057993932713    5.49122459246834   22.45732651956084
C         0.08730453857595    5.35530771537201   21.33200919268560
C         2.09797205589865    5.94062516577368   19.06216787388003
H         1.12856622823320    6.37854762563023   18.90256162641646
C         3.84671646997054    1.42247993624127   16.10382570447223
H         4.17552276146443    1.28960791220040   15.08460946530901
C         3.76100612946730    1.53896216929360   24.10275575405432
C         4.37212007150564    5.65342240725091   18.41203101114268
H         5.21089140843998    5.85892943880504   17.76701114821105
Ir        3.49237169604707    2.92377666920860   21.59094040609372

