28
CSD_code = FESTOP | q = 0 | S = 0 | Stoichiometry = C12H10Cl2FNPtS | MND = 4
C         5.37307352471913    1.07417381447512    5.51053103433986
H         5.05096214613279    1.54496659328027    6.43018989896345
C         6.70753120978588    0.83535860964661    5.24366269200678
H         7.45494662736041    1.10668894754979    5.97085566977430
C         7.05845260810998    0.24026555604602    4.04133589189056
H         8.08887504312318    0.02854595822204    3.80331668576337
C         6.04967218494635   -0.07948939890899    3.14630749242270
H         6.27804822278784   -0.53800562910130    2.19697793374853
C         4.73163822748630    0.20050083457335    3.47335528446338
C         3.62018191121136   -0.10169284499814    2.51953764904710
H         3.92782192398979   -0.82572614879587    1.76529526545099
H         3.27803499338766    0.81129774492910    2.02808944191192
C         0.82621633065552   -0.04503105973134    2.50928522560580
C         0.67697081884534    1.33466966940974    2.47269611414506
H         1.36470087090242    1.97830848241501    3.01451728621778
C        -0.37943945453584    1.88769283591710    1.77605525068647
H        -0.52738448353817    2.95488578327294    1.74019248638405
C        -1.27426659692804    1.04299721109236    1.13870883732409
C        -1.14341885091722   -0.33409248234008    1.17909036923616
H        -1.86749984418436   -0.95849572286261    0.68105286843684
C        -0.07833838832389   -0.88005071388155    1.87278463315668
H         0.04507383815529   -1.94999847450912    1.93157368717950
N         4.40101438610650    0.76070347987989    4.65024302475460
F        -2.30119137379405    1.57835557710934    0.45794662125058
S         2.16082575316664   -0.79853955500049    3.42947076282139
Cl        0.27138241511973    0.78638410022354    5.71178929944111
Cl        2.76394144992662    2.49199280417187    6.66199421332423
Pt        2.44507450630302    0.84113402791599    5.15734438025334

