61
CSD_code = FESVEF | q = 0 | S = 0 | Stoichiometry = C26H24FeN6O2S2 | MND = 6
Fe        4.14924560246145    1.38047613876878    5.23984233173557
S         1.30590670761426   -0.81282720497472    2.38076443929292
S         7.03790085633919    3.46549447799756    8.14297116290646
O         2.48862879001514    2.73601914248689    6.07767026413125
O         5.80835672573234    0.02504095915096    4.39999152174278
N         2.71088934329202    0.62548821364697    4.26734115584297
N         5.58539164265570    2.13582288628187    6.21278182934302
N         4.42580182680592    2.65967159166328    3.81125354831348
N         5.46042947976263    8.29295586527380   -3.62998650730004
N         3.87327207086268    0.10064903522335    6.66945322194330
N         2.85163065579750   -5.52368988261119   14.11934831884567
C         2.13948291611027   -0.00247035546542    3.45237111528437
C         6.17939293224858    2.71575367636241    7.04712534851467
C         4.50421519127552    3.96710500816741    4.08259351604651
C         4.66609309765402    4.92834631627542    3.11224898517030
C         4.75124814228011    4.56464004169442    1.75945420267788
C         4.66151783204562    3.19086768432164    1.49034749425765
C         4.50531011238539    2.29793068128206    2.52450679166049
C         4.91420486277122    5.58390487465044    0.75286417950598
C         5.00252812912043    5.37812141034453   -0.57307676635330
C         5.16038246083506    6.40169188504294   -1.58517925002264
C         5.24527420234017    7.77106975690661   -1.30990741865520
C         5.39262577832857    8.65854607422904   -2.36020218830145
C         5.38169872787164    7.00065908742824   -3.90104286265207
C         5.23349206486155    6.02559669140721   -2.93186681610980
C         3.80226262388639   -1.20743674147690    6.39943582671299
C         3.64440276992133   -2.16864607994841    7.37056562344028
C         3.55551906519623   -1.80401482791985    8.72279705644077
C         3.63745552145774   -0.42954491722500    8.99056540321954
C         3.79017682811237    0.46319321247397    7.95569583017994
C         3.39621908252338   -2.82294436189990    9.73051064687492
C         3.30428029508535   -2.61510552623025   11.05581966845561
C         3.14902490564812   -3.63691940094652   12.07013332693140
C         3.07580530325993   -5.00771667976454   11.79877254586607
C         2.92918032576965   -5.89286471723635   12.85117603404065
C         2.91954413232147   -4.23001034915827   14.38670536565639
C         3.06601893676585   -3.25704097316686   13.41517920880764
H         2.13526204981928    2.46463707803940    6.93090619999631
H         1.80924593535258    2.53272898274538    5.42180500451590
H         6.49241639937413    0.22863149679919    5.05089111822005
H         6.15751353025117    0.29122536836226    3.54339492284935
H         4.44726551426198    4.23137720342765    5.12771666244617
H         4.72754794701974    5.96720125304736    3.39791419059990
H         4.70654251534212    2.81792261351194    0.48036142305268
H         4.40017164484725    1.24041808586606    2.32497776296542
H         4.96308934090905    6.59227352250330    1.14083542179427
H         4.95230700022571    4.36999049792139   -0.96254798056905
H         5.19755017065764    8.14238791133757   -0.29890674414624
H         5.46046081926386    9.72357793312939   -2.17954815875387
H         5.44070286290940    6.73943076152141   -4.94965788953485
H         5.17371208364098    4.98393581801224   -3.21064323668545
H         3.86248520903826   -1.47294834512574    5.35480412608745
H         3.58902043385021   -3.20805304582301    7.08566966998610
H         3.58912155295602   -0.05563429239163   10.00002308867406
H         3.88934387569815    1.52142052834482    8.15440387357908
H         3.35304795425264   -3.83213077436551    9.34398786216277
H         3.34834500718874   -1.60587266532787   11.44316480062371
H         3.13216893160132   -5.38186172674935   10.78926217642633
H         2.87020029646942   -6.95895709766383   12.67371091614426
H         2.85284117559350   -3.96584079529343   15.43411416186543
H         3.11672780805494   -2.21407300488575   13.69083647325655

