78
CSD_code = FETBIS | q = 0 | S = 0 | Stoichiometry = C30H42AuB2ClNP | MND = 3
Au        8.43276208077164    4.14664828063453   15.43236038260442
P         9.51699981922646    3.35940269446542   13.37263230812178
N         6.57536734746541    5.31137842269647   17.41021857131607
B         7.43459891908133    4.25003688533196   17.29754980726295
Cl        6.12714303941757    5.97241782131890   14.68098477396375
B         7.26278991276958    5.85317433085660   16.20231496014694
C         8.72435159405711    1.87180840834066   12.70095412149540
C         8.59642780853377    0.79146119611391   13.57359272824609
H         9.00110728494724    0.87069377958667   14.57521508837782
C         7.96632884233972   -0.36535196088044   13.16002005031733
H         7.87581242731476   -1.20299237105247   13.83578844462293
C         7.44276325392553   -0.44532052905065   11.87825600313859
H         6.94641716469093   -1.34793401749194   11.55452123991499
C         7.54882208174576    0.63355621645573   11.01628003462376
H         7.13313495826797    0.57216750051543   10.02123202428855
C         8.18493777474990    1.79367679229096   11.42250502726959
H         8.26381357491299    2.63632794919384   10.75032224440210
C        11.26933041401388    2.88985293373697   13.48869318082800
C        11.79439762275443    1.69331647115591   13.01337073292703
H        11.15106234123982    0.97649910261114   12.52279700336106
C        13.14409844258755    1.42841164899996   13.16416409180447
H        13.55185998798125    0.50084529218109   12.78961632348939
C        13.97281175246528    2.34703543578680   13.78741923703276
H        15.02545768274957    2.13432804004546   13.89934802348214
C        13.45114786734341    3.53732312679866   14.27034611650292
H        14.09556206228398    4.25192661690653   14.76047439152728
C        12.10367001581112    3.80514847862990   14.12827833456285
H        11.68249694523147    4.72765876539091   14.50740082671953
C         9.50142675936449    4.52644395150212   11.98181591818655
C        10.53821942152045    4.61667806287491   11.05814186225363
H        11.40302409502353    3.97360969719983   11.14786017020777
C        10.45581241454565    5.53289792543698   10.02543337311274
H        11.25947886251274    5.60337558428346    9.30664103889012
C         9.34814398865294    6.35817199328779    9.91075824495552
H         9.29238391668017    7.07278915462448    9.10286958098544
C         8.31705338780179    6.27097663213462   10.83264126532187
H         7.45606368289448    6.91693086600288   10.74921531386472
C         8.39151349815865    5.36073054602761   11.87077839319638
H         7.59600565351111    5.29898083845223   12.60179255809128
C         7.76366681112415    2.95291180381252   18.23290862083892
C         7.69493276602567    3.23601950820853   19.74022721017894
H         8.37749805778874    4.04220041470558   20.00265872294364
H         7.98749486673182    2.34885904424329   20.30345524612959
H         6.69657326625243    3.51169887857462   20.06075585381131
C         6.79276021521730    1.81361133493165   17.88375346718565
H         6.86283960297473    1.56586627678565   16.82497508429189
H         5.76483637533282    2.09162519607980   18.09563646685605
H         7.03053131316001    0.91960940417475   18.46071625239150
C         9.18985183502258    2.42480533772170   17.98393639247665
H         9.31927716500919    2.08726040626262   16.95674322914662
H         9.40105843819260    1.58178979787125   18.64228619192323
H         9.92840605956594    3.19919882130356   18.18068161596159
C         5.45801172383109    5.78157174915821   18.22209372132552
C         4.61432353444737    6.79020566365832   17.43379419855273
H         5.21615360895105    7.61988527021488   17.08464935181974
H         3.81971372881009    7.17928379317613   18.06745649260571
H         4.16391744636029    6.30929513727030   16.56948356435730
C         5.97001609583988    6.44652560065583   19.50717094200399
H         6.52955855451581    7.34763714880531   19.26876663060647
H         6.62353834145256    5.77321210017008   20.05354313144452
H         5.13336746785119    6.71936610698508   20.14666975605944
C         4.52813086226210    4.61015744814289   18.56812417728385
H         4.25752151558781    4.07741984665538   17.65898365850430
H         3.61907494580307    4.98721236288041   19.03186623779305
H         4.99472100291680    3.91327991912086   19.25486208535751
C         8.28842217793566    7.14540277620737   16.27509305858596
C         9.08428312817371    7.30516741942596   14.96848333861714
H         8.40961042200018    7.45572847699248   14.12911497880893
H         9.68944152899746    6.42189798198380   14.75787705106758
H         9.75207339672622    8.16468596333336   15.02898675835986
C         7.57229716484470    8.48586704927872   16.50129138115267
H         6.81120772272690    8.64308483755067   15.73999365280976
H         8.28348460906582    9.31082401730060   16.44223181437625
H         7.10696755702974    8.52234849004069   17.48274157080695
C         9.29276857548077    6.95122629368553   17.42055039757661
H         9.91047676177710    6.07055737617482   17.24758227855907
H         8.77447478365273    6.81362600251546   18.36624735697910
H         9.94681787121572    7.81819238055342   17.50860426900737

