93
CSD_code = FETCAL | q = 0 | S = 0 | Stoichiometry = C35H51AuB2ClN2P | MND = 2
Au        8.73608791247257    7.26337318692904   14.19162812695131
Cl       10.31582995539594    6.47737500293114   19.67775100837496
P         8.71305345049831    8.04393134327680   12.04111604451507
N         9.30671718654502    4.69546660276927   17.66715926318946
N         9.10956786729914    7.06791747180065   17.23046895604568
B         9.05306096251783    6.03774536290881   18.42101550157604
B         8.81621760053690    4.87910925721446   16.37118574763669
C         8.31372817514664    3.91958179366591   15.12780854460732
C         9.33505849599265    3.97418951158223   13.97700375266465
H         8.94264440398380    3.47293806408106   13.09033497194939
H        10.26607071830421    3.48545923175913   14.25464203898609
H         9.57050440761702    5.00188336704302   13.70309723280772
C         8.02301599458404    2.42833604678021   15.36515798453967
H         7.72404483837779    1.96808837057044   14.42100202007900
H         7.20041051175995    2.29435324932513   16.06208399472361
H         8.88332314486881    1.88272282653983   15.73277221857033
C         6.97267496077059    4.47359597345289   14.60656997479134
H         6.66077684335288    3.92961625805291   13.71342348778001
H         7.03835852175772    5.53010973606102   14.35325630213253
H         6.19684760697098    4.36174830390076   15.36008784700369
C         9.89807573108484    3.45577891653902   18.20457455376155
C        10.98773142166745    3.01542024731866   17.20889818596627
H        11.48371464911983    2.11507463412710   17.56600898364523
H        11.72940673156477    3.80655008379645   17.11817140849626
H        10.57704844764777    2.82657363318379   16.22624621500070
C         8.84377235797988    2.33932791012740   18.39839786850683
H         9.16431418140426    1.41419633245550   17.92664518805892
H         7.88989380809705    2.63233893896544   17.97716619708344
H         8.69582537687277    2.13041115333021   19.45573069176908
C        10.63182978829066    3.59132308938055   19.54589019653170
H        10.99132497444877    2.60283917952969   19.83055893971025
H         9.98219953414122    3.95755867125744   20.33188420318064
H        11.48877052777301    4.25229294972886   19.46643155317402
C         7.51797879013807    6.02578980861984   19.12988287746339
C         7.45038969609847    4.99729026547709   20.26615200310043
H         6.46372766080278    5.01629534435837   20.73193296076226
H         8.18644712269356    5.23212047977679   21.03213926368290
H         7.62911405458539    3.99485346112186   19.89876214305196
C         6.44921988142215    5.66707876470816   18.09442166107208
H         5.45636033811219    5.70937440146670   18.54291218416884
H         6.60656862981047    4.66329354331573   17.70978508792124
H         6.47340429315354    6.35768985542751   17.25216417375815
C         7.11400941709684    7.36420317717588   19.75987394365314
H         6.15050864003409    7.26009092377152   20.26216193663365
H         7.00908599458974    8.14130882828537   19.00841472528131
H         7.84241308256182    7.67087672372659   20.50715568624806
C         8.84149754615348    6.45469027457433   16.11346567323314
C         9.43335758535235    8.52187845657487   17.22922504023422
C         9.76866402597500    9.14047206583661   18.59136450592409
H         9.80741432387417   10.22213600725434   18.46643787460029
H        10.73428213366053    8.80555766566929   18.95196896696354
H         9.02644981262967    8.91252597857315   19.34205460648836
C         8.25626594014153    9.33891501860214   16.67234001372388
H         8.58732804466016   10.34593514224350   16.43047356140113
H         7.46455674792202    9.40871462769659   17.41316346910819
H         7.83890413583543    8.88695338986317   15.77405732318857
C        10.70118950183176    8.72000613024429   16.38041655366119
H        11.01471638456556    9.76018713583031   16.41998893910483
H        10.54466809290282    8.44495497523592   15.33871515004064
H        11.49829643384095    8.09901441138102   16.78213747465818
C         9.57238019169825    9.61876739513463   11.76089387851539
C         9.60059203369075   10.52958743447066   12.81275762933544
H         9.12395406539828   10.27211575581203   13.74980723448754
C        10.23650167575325   11.74730860710501   12.65644433206954
H        10.25783955297045   12.45339947328761   13.47311389707758
C        10.85062816749561   12.05599491541558   11.45334534099963
H        11.35140338927678   13.00474288408337   11.33176045068765
C        10.82813542398229   11.14799887560126   10.40601080804328
H        11.30929604339542   11.39064889151409    9.46998683570285
C        10.19202516732953    9.92926134967147   10.55429495789773
H        10.17443232396757    9.21763201952547    9.74012042322099
C         7.07338326848073    8.29811899706650   11.31125731002507
C         6.64611560396829    9.50027526872105   10.76047547247224
H         7.32002852891783   10.34422006846755   10.71034326122322
C         5.35436213311056    9.60769027808197   10.27480189996066
H         5.02201642213990   10.54011401571911    9.84286236899529
C         4.48923441811830    8.52810081892541   10.34236254125570
H         3.48303177473571    8.61988163368220    9.96188872900856
C         4.90971519932581    7.33185065332769   10.90440016917486
H         4.23261416376948    6.49292584202472   10.96452406888003
C         6.19515910962485    7.21789483736256   11.39547248429852
H         6.53527115829694    6.29372330027931   11.84624572585566
C         9.53733176288474    6.92312434854637   10.87620162938991
C         8.99451427980045    6.52096065922329    9.66146353299824
H         8.02846293400024    6.89244556251985    9.34866473441056
C         9.69805724544593    5.64312300300063    8.85551312966370
H         9.27722320924775    5.33182797267613    7.91067425861541
C        10.93461435162932    5.16372226471130    9.25547751415954
H        11.47595322727818    4.47649990604593    8.62275659906046
C        11.47620799938214    5.56093556367372   10.46830312061181
H        12.43744948911971    5.18354958013589   10.78317441436121
C        10.77885335755282    6.43522232230774   11.27860024741971
H        11.18699292894029    6.74700194468025   12.23236399718442

