70
CSD_code = FETFUF | q = 0 | S = 0 | Stoichiometry = C20H46FP2Rh | MND = 5
Rh       14.16834862927591    1.04659652383182    1.10119292114806
P        15.32670735312799   -0.37336762075807    2.51405612344755
P        12.86426198796869    1.99261844913168   -0.56128753237172
F        13.14455767672460   -0.56815840673155    0.65748234199231
C        15.66381561497591    2.54875762136392    1.08694355437838
H        16.63767333242944    2.18732463645592    1.39728817569047
H        15.68977175004862    3.10751057549955    0.15762370159592
C        14.70580266354884    2.85618134464372    2.05245325164072
H        13.99880802438959    3.65580298224944    1.86617614109748
H        14.94708337995682    2.72659888457327    3.10112886661200
C        16.54162869868288   -1.44916288944567    1.57756829769596
H        17.09187508160153   -2.07741172045799    2.28535308491845
C        14.16704600839847   -1.64770622868685    3.24048911169124
H        13.80707087864834   -2.14727910699924    2.33452871450799
C        16.41158509474647    0.29622787524330    3.90614637022574
H        16.87353337529905    1.18489893922580    3.45651590951527
C        15.82206735788442   -2.34020853359044    0.56988566522220
H        15.28935921917153   -3.15197014519159    1.05810802356353
H        16.54094369583121   -2.77714859781035   -0.12270202323089
H        15.10701211350958   -1.75265124953592   -0.00225278465582
C        17.51686965623844   -0.53879702764195    0.83491074626480
H        18.05766155878086    0.11622321973094    1.51537369490411
H        16.96333108011015    0.07818770943949    0.12578306226418
H        18.24588208012960   -1.12951705465315    0.28073150547418
C        12.94919696848302   -0.96530080724481    3.86167029586037
H        12.63352050075728   -0.13893341627997    3.22060417144077
H        13.15594464010038   -0.58142371914012    4.85683191599729
H        12.12330388456965   -1.67106736090222    3.93555098340941
C        14.75801062126109   -2.69797033899827    4.17248516246190
H        15.03876135509335   -2.26769323802175    5.13100720570721
H        15.62838786765854   -3.18018289939267    3.73302523087262
H        14.01083088004731   -3.46809238664022    4.36446923536515
C        17.54078975731009   -0.59173877048596    4.42285796400853
H        18.28792009598132   -0.78446728945207    3.65775691939161
H        17.16969618321041   -1.54187945228155    4.79441362225823
H        18.03922280420773   -0.08205507699340    5.24807204865357
C        15.54863852823472    0.77329266512739    5.07356476975148
H        14.65050703472664    1.27402513931711    4.71675078191825
H        16.10745316829778    1.47204050871924    5.69643529089773
H        15.25057335434223   -0.06382035335991    5.69978493300492
C        11.10602666532155    1.37195975587988   -0.44494597906884
H        11.25324696704622    0.29495836169177   -0.58150565611664
C        12.81703770394999    3.86278157517360   -0.83077956855518
H        13.84565204779534    4.17203286655970   -0.60442567519100
C        13.38899333316737    1.38473915532699   -2.25519057309465
H        12.87107085031947    1.96094956699783   -3.02778047322003
C        10.57323087151347    1.55331141701376    0.97558689149008
H        10.22294201320765    2.56585979370251    1.15662075875939
H        11.36731792961316    1.32005450457048    1.69011136057955
H         9.74373556139759    0.87107526750360    1.15494484001652
C        10.11459855489281    1.86555639975259   -1.49106664824796
H        10.50330492437520    1.73971613304814   -2.49923743711050
H         9.86274611744396    2.91259943448552   -1.34032393070065
H         9.19188778030579    1.29047922300143   -1.41304094728092
C        12.48798301809670    4.37426045001946   -2.23114422621483
H        13.25656004747167    4.10438158266357   -2.95077087621741
H        12.43269009419275    5.46295591232899   -2.20397886250447
H        11.53067179588697    4.00121431069622   -2.58316075133596
C        11.90551755046428    4.53704383045403    0.19393172173414
H        12.01539536164888    4.08358744444737    1.17670303956225
H        10.86343018329088    4.46052102177180   -0.10564011281766
H        12.15060642903506    5.59617443189758    0.27622195013488
C        13.08413391909872   -0.09563305433894   -2.46137828502460
H        12.02154180651977   -0.26983404742729   -2.60981412961890
H        13.41267020423739   -0.67413783941709   -1.60268824563281
H        13.61044705468256   -0.46121158676080   -3.34282726676415
C        14.89471346242151    1.61623767155116   -2.36170622572404
H        15.14417591539482    2.67175980031260   -2.26539389897516
H        15.27672415202690    1.26046454098106   -3.31802779910356
H        15.39509372942164    1.06605869224906   -1.56057044835298

