73
CSD_code = FETHIX | q = 0 | S = 0 | Stoichiometry = C29H35BIrN7 | MND = 6
Ir        3.52506000331601    1.26632988019050    3.00235715996308
N         1.34308216844701    1.26128841316057    3.05267947347294
N         0.69630726396114    1.98575330093497    2.12532654774293
N         3.32290618330951    3.44581643472275    2.65405092126490
N         2.33249143735886    3.83966076281289    1.84034725047734
N         3.29768800471450    1.11188021138121    0.88178444182853
N         2.38019896420207    1.89464947679967    0.28743842066060
N         5.20347880558161    1.47815472901937    5.34690651390947
C         0.43262886739116    0.61813055605957    3.77660922912311
C        -0.84212845170342    0.95089517362813    3.30598913359668
H        -1.78182076861612    0.59884594887142    3.68153924940974
C        -0.63398387089414    1.82099590722724    2.25411305492057
C         0.73452930818753   -0.32615047358040    4.88609201878564
H         0.43869213237280   -1.33441366489915    4.59747060313313
H         0.17172569379772   -0.05128680326476    5.77777973975573
H         1.79568934452486   -0.33428533894313    5.11010938731058
C        -1.64841949889578    2.48108768946282    1.39035887129052
H        -1.56472153182872    3.56501788027406    1.45156990218171
H        -2.64351988092779    2.18676458109445    1.71418268874236
H        -1.51790564228631    2.19081532636231    0.34908042332352
C         3.90661877229533    4.53709859495843    3.14040710543365
C         3.26785780893311    5.66708688636010    2.62456810349739
H         3.50465334950375    6.69279996607289    2.82432182764486
C         2.26976385208437    5.18275853448650    1.80049099995708
C         5.06079826967102    4.52787035339352    4.07900562088172
H         4.73149016681450    4.28867881840205    5.09013159242101
H         5.52533691551323    5.51123265153933    4.09202312627384
H         5.79301720090189    3.78648992450238    3.76906269908708
C         1.28337853438889    5.95356446418943    0.99852547873946
H         1.38597241273948    5.72977404584984   -0.06199932496818
H         1.44782096517653    7.01733143119553    1.15034177004303
H         0.26567939028492    5.70867093387711    1.29817273230320
C         3.92322254829959    0.42175210391625   -0.06707068172555
C         3.39353951077483    0.77569385422833   -1.31171153012108
H         3.68452252333169    0.39521158479482   -2.27006512431622
C         2.41637846539900    1.71462312268749   -1.04655187783662
C         5.00550857353513   -0.56909089110518    0.17627583879844
H         5.97045235253299   -0.14768495583879   -0.10557722525119
H         4.83465230635561   -1.45486508498247   -0.43297797679598
H         5.03349689781708   -0.85457152170370    1.22267995310982
C         1.54057592560058    2.42683370257934   -2.01448947861239
H         0.49056595034364    2.21965939225388   -1.81452891823615
H         1.77704042421629    2.09764930042049   -3.02313262173327
H         1.69047932408302    3.50350071973297   -1.95201958193619
C         3.88298531390343    1.55901993551142    4.94938557289369
C         2.96967352616691    1.93519977987761    5.93797444092628
H         1.93715552375435    2.06353792246756    5.65672513468568
C         3.35204966745227    2.14966011926087    7.24512965432818
H         2.63103727791594    2.44047313763456    7.99436810791686
C         4.68839013631055    1.97642168105033    7.59467954473801
H         5.01239386633466    2.11038213074001    8.61452787629627
C         5.61081192138345    1.64773723114050    6.62667636194628
C         7.05867907830488    1.48530473885051    6.96887560867343
H         7.19659485919172    1.58362254065908    8.04217698629605
H         7.66294719249258    2.24590587279305    6.47461268518084
H         7.42153991992602    0.50534724889596    6.66130487149167
C         5.52311120227921    1.19483741078378    3.06064266594327
H         6.21255515843669    1.08043638005128    2.22698316748179
C         6.08372950764858    1.26711571115691    4.28024804689160
H         7.13805256053118    1.21798773142787    4.50257383289801
C         3.47357725985552   -0.78406826846531    3.21141864700093
C         2.59081031558393   -1.50192474277748    2.39700155501635
H         1.98900309688805   -0.98919932521326    1.65913802625068
C         2.44585907593547   -2.87508724992536    2.49043825718912
H         1.74945378647151   -3.38502735530836    1.83776357676248
C         3.18331407289481   -3.59622175630073    3.41175340050630
H         3.07176554459678   -4.66856146527837    3.48893551412562
C         4.06567887046084   -2.91858570343656    4.23164017969274
H         4.65290507799588   -3.46236032137223    4.95977578111609
C         4.20430785622628   -1.54359788084753    4.12982889783581
H         4.91054583255854   -1.06414882729708    4.79371400685164
B         1.45866118974199    2.82405830570889    1.09092308290162
H         0.70501033614130    3.37881709509641    0.37311697861555

