51
CSD_code = FETHUH | q = 0 | S = 0 | Stoichiometry = C12H24Cl2N8NiO2S2 | MND = 6
Ni       -0.79584089416240    3.37466481744518    1.69813925015632
Cl       -0.60608727010476    5.34537476310655    0.39314282035315
S        -3.35957602027708    6.22447252578416    5.18021973793206
O         1.66748098244520    2.45635978852515    0.82019164519929
N        -1.08393210465211    5.23961407118655    4.36496345188501
N        -0.28288756331604    4.64786063898446    3.47778063887022
N         0.99819895339090    3.19845980914109    1.75267977707482
N        -2.26814185287743    6.50112658303419    2.78579393452531
C        -2.10480217405764    5.92380819868681    3.98064815261190
C         0.99361268078256    4.56900017687215    3.65331790417382
C         1.72842421023760    5.26946810483728    4.75447643805701
C         1.70224670626480    3.76603968501145    2.67708576990167
C         3.18660058961589    3.61140883318297    2.75050120566412
C        -2.74214862052023    5.21452386414855    6.55251736968849
H        -3.11728164068461    6.99660624856163    2.57844569892500
H        -1.63684415732435    6.26630061957457    2.00873127215560
H         0.94451258226116    1.97417457297195    0.31931865433833
H         2.44505746967814    4.60417760145721    5.23067320576872
H         1.00669851206304    5.61798284931695    5.48999425205445
H         2.26692160935746    6.13178583197649    4.36227681648603
H         3.66104290625217    4.57167404285484    2.93414874216701
H         3.56168072477839    3.19393827056394    1.82020032305264
H         3.44488737391539    2.93489711723580    3.56537233069329
H        -3.54694588702504    5.14619341690810    7.27717760586696
H        -1.87636140979223    5.70040708852792    6.99032734916364
H        -2.47272545970437    4.23513218047712    6.17129029364234
Cl       -0.98618218683734    1.40413672640872    0.39361700516289
N        -1.30899255576447    2.10124192547694    3.47772519138218
N        -2.58988877691119    3.55091174396543    1.75278760480705
N        -0.50782665242704    1.50978328461214    4.36496833116074
C        -2.58557012397214    2.17970862425170    3.65298630605811
O        -3.25910935788698    4.29327760937764    0.82044351141179
C        -3.29403151896735    2.98319692462423    2.67705617594272
C         0.51315086399047    0.82573978899328    3.98079947602063
C        -3.32057223407521    1.47885198768721    4.75384106970608
H        -2.53614817002423    4.77528894301505    0.31945534863629
C        -4.77827082442378    3.13823080959215    2.75066220242476
S         1.76776687361614    0.52496621998171    5.18050515132842
N         0.67652839525602    0.24825057779349    2.78604008900890
H        -4.03618302062849    2.14435649726616    5.23127872594812
H        -2.59899704996799    1.12857153116614    5.48864159897905
H        -3.86039536026231    0.61763941800638    4.36114513408218
H        -5.25302055553364    2.17811107273843    2.93467810819778
H        -5.15319965794071    3.55550997540631    1.82017381280083
H        -5.03621125678797    3.81518199100252    3.56536609556015
C         1.15082063371927    1.53544974050073    6.55263426188234
H         1.52572220544329   -0.24714595763610    2.57874778576759
H         0.04526066533066    0.48294184900988    2.00893795514508
H         1.95563713838029    1.60363447693392    7.27727631443974
H         0.28484677716192    1.05004922519343    6.99057507580187
H         0.88177550296716    2.51486331426158    6.17124302794507

