84
CSD_code = FETHUJ | q = 0 | S = 0 | Stoichiometry = C31H41BIrN7O3 | MND = 6
Ir        4.14644880541096   12.56543585641281    8.03285388834206
O         3.06486484447897   10.72162839034205    4.38774200062106
O         4.04562088816905   11.79948178642312    6.02585402633114
N         4.23629703678905   13.24778038042870    9.94246857700715
N         3.07319508815635   13.36613019450747   10.61014335657540
N         2.58164352661594   13.91383786156289    7.74510213865407
N         1.62669599834399   13.97219574881654    8.68647264519563
N         2.64739885333934   11.09999757631752    8.77602276463509
N         1.66542089906944   11.62527026237690    9.52013719607129
N         6.02952933884718   10.57020272425530    7.14348806599258
H         5.55330474833278   10.90523969895552    6.28909862075081
C         5.22436550511769   13.61869173864026   10.75990282944204
C         4.67315313613602   13.97169863158965   11.99337506456131
H         5.20229452376575   14.31063818811498   12.86052540316287
C         3.30831474819108   13.80062968606952   11.86033513497207
C         6.66674694139804   13.68004054246205   10.39974978207789
H         6.84011389967422   13.24047189581450    9.42383293435743
H         7.26347896055940   13.16381033872392   11.14988355597909
H         6.98967121216852   14.71952492807289   10.36886060735908
C         2.25248657440421   14.03548365950532   12.87949558029808
H         1.56361759030143   14.81100177308103   12.55011690601905
H         2.71457140911826   14.34935122470641   13.81160992984905
H         1.67910120215577   13.12780936492114   13.05712267101234
C         2.24190002308578   14.73040927904038    6.75545830659435
C         1.02421857479748   15.34093541408923    7.07543296300020
H         0.48332012847539   16.05183144810770    6.48330526438204
C         0.66314502206434   14.83294317557443    8.30843545524932
C         3.05085688431410   14.95021616534115    5.52882995591976
H         3.63574004515972   14.06647114120343    5.29601555140123
H         3.74123042111818   15.78139858005285    5.67394602524214
H         2.39670320063902   15.18705340943551    4.69153298266243
C        -0.55066332469345   15.13310668981530    9.11315714775423
H        -1.14905056552939   14.23512272155700    9.25887900349798
H        -1.15336006236540   15.87449622688062    8.59502178187603
H        -0.27972332116626   15.52230306507552   10.09313626174962
C         2.35897527843327    9.82345762951715    8.55801879885635
C         1.14556517209200    9.51686058883530    9.18302068284342
H         0.64147246077532    8.57098376934599    9.19042853238746
C         0.73262448419835   10.69098811807147    9.78396642829788
C         3.21937380932792    8.88443109442356    7.78776551394924
H         3.43814903104435    9.28078629332197    6.79918243738065
H         2.70530441395550    7.93244024920004    7.67406990071257
H         4.16128770880208    8.71002476245133    8.30815191966247
C        -0.49572472020610   10.93839425247789   10.58464961710375
H        -0.24150434458839   11.25399557904937   11.59534879118144
H        -1.08157650165530   10.02436476400971   10.63920252676250
H        -1.10429951396932   11.71887717217489   10.13072748701041
C         5.57345690927640   11.17123108407264    8.26820267538640
C         6.07961191711261   10.61447966118707    9.46634506946551
H         5.73601392280359   11.01425855527950   10.40684379272116
C         6.97642991333082    9.57366225065118    9.46252790088685
H         7.34285637593990    9.16248364891569   10.39206636619185
C         7.41647902898865    9.03195469788565    8.24754250755849
H         8.12480298552676    8.22071281191223    8.22030769493066
C         6.89897536098537    9.55567667338947    7.09310307996891
H         7.16199279630759    9.17795213752390    6.11579437077687
C         5.45291668338610   14.01879362321041    7.40846857119459
C         5.35802103357121   15.31366950032545    7.92258440182230
H         4.62608782092635   15.54837187758936    8.68375248417212
C         6.17781392209710   16.33971083222081    7.48263866315827
H         6.07050344893719   17.32971426672442    7.90567091016648
C         7.12556426016410   16.10583114761602    6.50285572267077
H         7.76528171103072   16.90448772213111    6.15537387609721
C         7.23424406199975   14.83515479317155    5.96981334660589
H         7.96233025141933   14.63463092370198    5.19570066708133
C         6.41134147368347   13.81381097006264    6.41832660456643
H         6.52110888092500   12.84263683565566    5.95846248003238
C         3.01502510156148   11.37599239007758    5.40891797301386
O         1.85544009077515   11.72564475306042    6.03118705703136
C         0.57883369386154   11.39513571556740    5.46430412584678
C         0.41294649697060    9.87788546445491    5.34781319291514
H         1.16115986312629    9.47560282402618    4.67063584823552
H        -0.57723163231600    9.64509011336541    4.96440806458989
H         0.53336131964915    9.41613590698545    6.32566783349981
C         0.42076973791596   12.06714310078210    4.09882028199453
H         0.55548498159790   13.14226568358650    4.19930436061238
H        -0.57030297556578   11.86800048297106    3.69932032108686
H         1.16783035240022   11.68167350401816    3.41037475990851
C        -0.44938137881772   11.95601763228218    6.44965165755045
H        -0.30544972060650   11.50885708363833    7.42983501560671
H        -1.45467307495259   11.73339210485500    6.10182333466651
H        -0.33287551568394   13.03291074444466    6.53833276577698
B         1.70681248678588   13.09731154421615    9.94050696113816
H         0.82881738023229   13.34607289728979   10.68613824632474

