63
CSD_code = FETLEW | q = 0 | S = 0 | Stoichiometry = C26H30Br2N2NiO2 | MND = 4
Br        4.76943257793565    1.00718498172717    7.57010644169957
Ni       -0.68805236669647    2.31461921048766    2.76394517510222
O         1.13248918492525    2.18072387609167    2.95234647944406
N        -0.91903000777889    2.42204693527558    4.72023018454108
C         1.87494589370232    1.93443136342511    3.96568998240690
C         3.26135764696507    1.69597129607532    3.77052206748880
C         4.09622972772970    1.42360437913504    4.81816772449467
C         3.58766720118159    1.38579215924620    6.11990052474632
C         2.26083094706507    1.61872247362372    6.36498804738424
C         1.38460226849423    1.89500332849460    5.30325861777257
C         0.01644951618694    2.17115658126780    5.57431406171000
C        -2.23369348759709    2.74702797270774    5.28391973742555
C        -2.18929455727650    3.93764699929525    6.24837112680350
C        -3.60819721121731    4.27102145552512    6.70153722429889
C        -4.24903524882736    3.06385898954715    7.38098121824785
C        -4.27372588865000    1.86727789967525    6.43403425113201
C        -2.86375544120712    1.52525500034517    5.96271956791673
H         3.63868405145358    1.72367918754563    2.75984286012923
H         5.14602279220614    1.23683747682545    4.64881921252849
H         1.87904720105154    1.58950428792622    7.37520161345711
H        -0.22942235708359    2.18575338222362    6.63653002968949
H        -2.87935179957361    3.02769628789366    4.44733277326150
H        -1.74004517353024    4.79558429812489    5.74324178702252
H        -1.58488492686849    3.70943927813609    7.12838489009945
H        -3.58309395279415    5.11693795120852    7.39125612001939
H        -4.20792819565656    4.56238891921073    5.83658510042610
H        -3.67938828630151    2.80671651080682    8.27708890173712
H        -5.26550282270621    3.31024313055850    7.69302329964297
H        -4.89629742131294    2.10534193286784    5.56910890822844
H        -4.71383000066292    1.00318213696432    6.93544793489235
H        -2.26013136234347    1.21299246775663    6.81809890407420
H        -2.89237255328128    0.69953493467137    5.24861391383311
Br       -6.14554020053427    1.00717665589551   -2.04220995776815
O        -2.50859344144341    2.18072680535812    2.57554410166094
N        -0.45707506576876    2.42204389532855    0.80765995034916
C        -3.25105087208633    1.93443389072759    1.56220130821774
C        -4.63746254405170    1.69597412202883    1.75737084627558
C        -5.47233509559632    1.42360353132212    0.70972671331329
C        -4.96377381889122    1.38579080092732   -0.59200666469992
C        -3.63693723359847    1.61871967192601   -0.83709558702125
C        -2.76070756502966    1.89500136979031    0.22463259461787
C        -1.39255433651836    2.17115175661869   -0.04642361053546
C         0.85758824902215    2.74702500419216    0.24397071451110
C         0.81318843349117    3.93764486418254   -0.72047993005096
C         2.23209285019963    4.27101806100679   -1.17364237836345
C         2.87293624032657    3.06386043389457   -1.85308779763825
C         2.89762070279815    1.86727804306179   -0.90614200528361
C         1.48764955380461    1.52525316470914   -0.43483063516461
H        -5.01478881578991    1.72368827031951    2.76805000060555
H        -6.52212948721911    1.23684395891670    0.87907567858907
H        -3.25515373845816    1.58949545910983   -1.84730910603267
H        -1.14668300392473    2.18574970296387   -1.10863977034142
H         1.50324721431114    3.02769197787200    1.08055770249535
H         0.36393738718811    4.79558097693629   -0.21535031857909
H         0.20878057650568    3.70943700771462   -1.60049497326056
H         2.20699166192994    5.11693515088586   -1.86336066727528
H         2.83182321484855    4.56238483596514   -0.30868966744869
H         2.30329048236536    2.80672088139454   -2.74919709496353
H         3.88940494492158    3.31024542230707   -2.16512676550950
H         3.52019114044229    2.10533871245551   -0.04121503988282
H         3.33772541241489    1.00318427342070   -1.40755752992249
H         0.88402686496001    1.21299338398645   -1.29021197423011
H         1.51626434195327    0.69953082991312    0.27927318178757

