36
CSD_code = FETMUO | q = 0 | S = 0 | Stoichiometry = C19H11O5Re | MND = 6
Re        6.09065092656489    1.90605174997780    2.22194701594422
O         6.77798438740484   -0.65832627991951    0.56709333927662
O         4.49721759055983    0.22821178943956    4.30918087927336
O         3.44707924903662    2.96122838453918    0.95728669140976
O         7.67696903949299    3.70609953957611    0.22756143656199
O         8.46187702936864    1.94732067770508    4.24000448414468
C         5.34808454231281    3.85548754527155    3.24390357274552
C         4.36515000576413    3.88355286900968    4.15236522296171
H         3.83989049655375    2.97484598300962    4.42986526584961
C         5.94449838487981    5.11528766135793    2.75647975074902
C         5.13519382794593    6.05407063786921    2.11644624487830
H         4.08047148150091    5.84989936956765    1.99827871144194
C         5.67358676625443    7.23212672490557    1.63555559099835
H         5.03515586472855    7.94729762748324    1.13774376867745
C         7.02386984815596    7.49760793432689    1.79023531241057
H         7.44257818934829    8.41924719698464    1.41448383208544
C         7.83706679842837    6.57350710402205    2.42549775996309
H         8.89116051096882    6.77460228276167    2.55084614189699
C         7.30505588132822    5.38867414844962    2.89597310012785
H         7.94474511123842    4.66787739360209    3.39074230993586
C         3.86512084329294    5.07850242988663    4.84223386370768
C         4.69938607693773    6.10733655929368    5.27326400150028
H         5.76468252200694    6.03293973947354    5.11866366443410
C         4.17460117619836    7.21071022556458    5.91920089331480
H         4.83467449463554    7.99939731443957    6.24977449010620
C         2.81186089509981    7.30743376516005    6.14608004808129
H         2.40454252197693    8.17325912839232    6.64689100827647
C         1.97524137180551    6.28185113158061    5.73850147252228
H         0.91236182865617    6.34455819180194    5.92188635181866
C         2.49824720178630    5.17279922276281    5.10191647036002
H         1.84220414998226    4.37351452392643    4.78553850872004
C         6.54691816394383    0.27624534572082    1.17407090754277
C         5.07377282464530    0.83594277913329    3.53847803770123
C         4.40704638654518    2.49395140382197    1.35639560794557
C         7.10493154400004    3.04768807155363    0.95680305871079
C         7.62612206663615    1.88299982753097    3.46731118392194

