69
CSD_code = FETMID | q = 0 | S = 0 | Stoichiometry = C29H36IrN2P | MND = 6
C         7.78879318205123    6.77659833539690   25.86887995297531
H         7.22135930509348    7.68168987271129   25.65959827227835
C         9.02170461604446    6.64032134925582   25.20769247691358
H         9.32491696425812    7.45766118833892   24.55246981247905
C        10.20248117798641    5.87813579690750   25.76516122509169
H        10.65757857795127    6.44892091311324   26.58240717338492
H        10.95081989916594    5.79669558100638   24.97420000703133
C         9.82545535345049    4.46607336054066   26.24671368712636
H        10.68557811806928    3.80619418616171   26.11721989055308
H         9.58677955743412    4.47801196704418   27.31088476601983
C         8.64866651366056    3.90364809243677   25.47781547388784
H         8.90157940370597    3.05041176333417   24.85515092039361
C         7.33009179864082    4.03030047998539   25.91352901042968
H         6.61963218870060    3.25268716219028   25.63946155050753
C         6.92329129598626    4.77751237614448   27.16502432823836
H         7.21709078341061    4.19642926406608   28.04619293482999
H         5.83379923551740    4.84736675164701   27.17531262022203
C         7.51595839093418    6.19732257720905   27.24289785801335
H         6.81051236780108    6.84327599161154   27.76848914865682
H         8.44033318381638    6.19413861222082   27.82214159164162
C         6.32436074673715    4.58094458751833   21.66265706112036
C         6.21015736793126    5.94707864791837   21.41685207606173
C         5.35784951483427    6.61051831588384   20.35406615425971
H         5.94483507744353    6.90628093208967   19.47519331343662
H         4.96188371173959    7.53644050580273   20.78418636334849
C         4.18187768818998    5.74779697601756   19.89655333180379
H         3.74602407505702    5.25872082918685   20.77066183543662
H         3.40806072477737    6.37884200295674   19.45204190626781
C         4.62292680464120    4.69926881834891   18.87569244675656
H         3.85453721343833    3.92941535155900   18.77734992110566
H         4.75569621065793    5.16154192875976   17.89535327955817
C         5.95514975055588    4.07195525407055   19.29909839433956
H         6.16037285290523    3.19029476966609   18.67955783054209
H         6.76479542333397    4.78719683046150   19.13931528758801
C         5.34587847583431    2.41564044854207   20.98752548890489
H         5.77249545619037    1.63764530813339   20.33891736543890
H         4.26938288863263    2.47982345189942   20.76552528472210
C         5.57342953060721    2.06003790601180   22.44888390497450
H         5.54892959970719    0.97966027276479   22.59353864223628
H         4.80749335082427    2.51566210854422   23.07952325972887
C         6.93034173291275    2.65185651430474   22.83513966642240
H         7.21999366617309    2.29938925181317   23.82302170810890
H         7.68564414483616    2.30319687036350   22.11234044580814
C         5.42853969959519    7.94751187622417   23.30489692200264
C         4.60027997095972    7.37862873688280   24.26929174563763
H         4.88712994550762    6.42232118566938   24.69025488555366
C         3.45073761705839    8.02434488817322   24.67869317147468
H         2.81818230360045    7.58198179616067   25.43509973156165
C         3.10814051112704    9.24603198613656   24.11781965718167
H         2.21029479162675    9.75563134984940   24.43639982624837
C         3.91850743505664    9.81200111525402   23.14852211361826
H         3.64906366954888   10.76082908617408   22.70633912800439
C         5.07387192454602    9.16772017505873   22.73877269604549
H         5.70597087177787    9.61998324301017   21.98668617752344
C         7.96269467784207    8.17445641920854   22.04001191153032
C         8.26750737824564    9.33900534933998   22.74053789887454
H         7.76922699687601    9.53967690233503   23.67992005369778
C         9.19319085005391   10.23314806279865   22.23679996983797
H         9.41999921240410   11.13897280490539   22.78110235437906
C         9.83366796650142    9.96835821053199   21.03614621780858
H        10.55523533735402   10.66968614264269   20.64293547218414
C         9.55262375586238    8.80097914376562   20.34535675957912
H        10.05988044589654    8.58933228538503   19.41464693866726
C         8.62696310485155    7.90575416534622   20.84917872207285
H         8.40859968837339    6.98234753252768   20.33031388748947
N         6.83410014778995    4.09790465293438   22.82253459129947
N         6.01000000250264    3.66227600897231   20.67708048338310
P         6.83474644467992    6.92355194493899   22.74781380100636
Ir        7.61210732872193    5.37756143183878   24.26150721469466

