136
CSD_code = FETNAV | q = 0 | S = 0 | Stoichiometry = C72H56N2NiO5 | MND = 4
Ni        0.04405943827782    2.76475232121937    4.12543880507608
O         1.18201511903559    6.85011709610473   -0.77903921053262
O         1.86905505586972   -1.92204504175078    8.08740527648461
O        -1.65386231029054    4.64425110289206    5.59456163425910
O        -0.20141053897157    0.05034475291813    5.20951776569864
O        -0.56515665986282    3.50660143116902    1.35621862921791
N         2.70450208511892    4.27875900606649    3.89608445759299
N         2.82228084186526    2.91167363449476    5.54015706760230
C         2.02239268636839    3.29139128693188    4.51577046588286
C         3.89596593763185    4.52290505440032    4.52598595998000
C         3.97033924121809    3.65914319921638    5.56391955885941
C         2.29397963187139    4.90357652207814    2.68567365818948
C         1.63970222679034    6.13692002457129    2.73262174671630
C         1.29330007080814    6.75552613560763    1.54708561016246
C         1.56452390352644    6.15208157497111    0.31999514100218
C         2.18820983726042    4.91148659360767    0.29069993692108
C         2.55428557641177    4.27345559758275    1.46715747021604
C         1.35345540436116    6.77990487938608    4.07215543927582
C         0.13025681381318    7.67152184960288    4.01847403428478
C        -1.05446857752524    7.14264466381929    3.51544281874589
C        -2.20411319673122    7.90642041177915    3.46680442448682
C        -2.18810226448087    9.21371454192011    3.92524140752786
C        -1.01694930582308    9.74446154606663    4.43417103508756
C         0.13617580843612    8.97797852239497    4.48286148320659
C         2.59894087631158    7.48688286339388    4.55487805647132
C         3.28230889954096    8.37026294684075    3.72680480910415
C         4.42798570718431    9.00431054013122    4.17212659513775
C         4.90887131788709    8.76096643342871    5.44848397459402
C         4.23516034436645    7.88149891923485    6.27764736509443
C         3.08738389677415    7.24956721641546    5.83228808677152
C         1.37125524696163    6.26779015572657   -2.04687217639696
C         3.22071527304469    2.91315631039695    1.43229016011355
C         2.78554926003542    2.10684843494396    0.22794381739143
C         1.69764177966987    1.25094648755745    0.32607140747657
C         1.27246005057350    0.52239550666122   -0.77000591254635
C         1.93321490844532    0.63931856903440   -1.98046569379478
C         3.02431183376470    1.48494176153758   -2.08615641127258
C         3.44887116571738    2.21312112695583   -0.98910822146679
C         4.73182440230166    2.99416136987195    1.48949478749942
C         5.42246953434934    4.19761207616321    1.50499146126199
C         6.80743065861581    4.21066625908464    1.54630258868552
C         7.51701909333727    3.02325338878917    1.56514442472291
C         6.83445199839306    1.81742819066374    1.54444043159214
C         5.45308030396941    1.80369697633216    1.50860184969685
C         2.61664570523466    1.71520632688649    6.28341255163687
C         3.24498605325210    0.54749356544653    5.83579123783817
C         2.94758316516235   -0.64941409162011    6.45961883942377
C         2.08482491147570   -0.69365492151783    7.55330778636602
C         1.52896223009928    0.48604081854799    8.03225738324821
C         1.77126454808425    1.69157345796111    7.39031599133851
C         4.27170000667366    0.59545056699984    4.72524910918654
C         4.10542686029343   -0.56539375980324    3.76698932625242
C         2.87730801075966   -0.70351341190144    3.12833469203185
C         2.67238033108563   -1.70510198514366    2.20001925419928
C         3.69759783414622   -2.58576122079604    1.89568171040891
C         4.92147620299624   -2.45552145859371    2.52684043980993
C         5.12724343205287   -1.44913127266669    3.45679751997024
C         5.65700218646820    0.71119184456922    5.32579129278750
C         6.50698260389542    1.72389381377290    4.89920115199010
C         7.78139381052880    1.84722866312834    5.42421944718527
C         8.22432702238751    0.96167199923880    6.39070959635610
C         7.38184923037469   -0.04627635006032    6.82826213494408
C         6.10868165613469   -0.17002137921184    6.30144606827753
C         0.94716236369809   -2.04434021038494    9.14438685084373
C         1.14947033517170    2.98117348569379    7.87939624803408
C         0.01803937241592    2.72357694600780    8.85081719055226
C        -1.22708900644498    2.34984154203295    8.35882903135846
C        -2.27421550173696    2.08033236349549    9.22006377532731
C        -2.08942510501001    2.17961883455148   10.58917212466191
C        -0.85115566560944    2.54425042822747   11.08807726550223
C         0.19756105495686    2.81253619400305   10.22499128260183
C         2.17571864845179    3.92283981771128    8.46845218192208
C         1.83807472826213    5.26257863887068    8.62627133113657
C         2.73112472874806    6.15434253605393    9.19190982784749
C         3.98118515079351    5.71894233195313    9.59936238867596
C         4.32530457853901    4.38732535542578    9.44739476996021
C         3.42635953738028    3.49266606123120    8.89167883512443
C        -0.96543011905735    3.90900815794526    5.05406865547574
C        -0.10162333052021    1.08236259293734    4.72900244873842
C        -0.26280465478974    3.13727115016335    2.39407154442312
H         4.57687375022404    5.27528766432162    4.18744781841851
H         4.72797819504309    3.51129976930359    6.30462650137128
H         0.78444488235035    7.70640957489974    1.54746475412226
H         2.38603727080471    4.41792213822988   -0.64607603966150
H         1.12332181947631    5.97697937528529    4.78684409772190
H        -1.06760416805992    6.12418928622079    3.15251598455017
H        -3.11498847117357    7.48091277624324    3.07179722131892
H        -3.08562972307470    9.81332726040883    3.88738071499098
H        -0.99664764681097   10.76181172745968    4.79754888668494
H         1.04298245331890    9.40395962780835    4.88708214666718
H         2.91182538998270    8.56181347246407    2.73035999795677
H         4.94817597668537    9.69138854457670    3.52049994383303
H         5.80470646175582    9.25596478768355    5.79352210490355
H         4.60070554241881    7.67972465194092    7.27378483307401
H         2.57007316032186    6.56321127928185    6.48729146793792
H         0.83425447449672    5.31839704203152   -2.13638120563926
H         2.43279567629830    6.10618800930496   -2.26105773202755
H         0.96477333163466    6.98176095439199   -2.76129619787514
H         2.88206459568997    2.35845284341041    2.31768925899137
H         1.17927608584532    1.15412037182021    1.26989067584639
H         0.42246713641698   -0.13806395011175   -0.67893101303301
H         1.60221897696659    0.07181268812829   -2.83782261326738
H         3.54806720992045    1.57801707275392   -3.02681212633217
H         4.30903897887126    2.86312659461032   -1.07536847506966
H         4.88017845005770    5.13255083829853    1.47575639614451
H         7.33142803285513    5.15570756344302    1.55837095933406
H         8.59645487969056    3.03595946466110    1.59429797332087
H         7.37803300234362    0.88460874749051    1.56221422835437
H         4.92337554519417    0.86166857392014    1.49090277014121
H         3.35914308136322   -1.57746224238111    6.09540511285480
H         0.88264007108742    0.47999580878643    8.89435948101705
H         4.10748202440766    1.49817095642842    4.12635264252091
H         2.07985215878961   -0.01233868276522    3.36602233270992
H         1.71521555545432   -1.79621617169602    1.70865481870335
H         3.54266092468676   -3.36793212763356    1.16726780354725
H         5.72589871137645   -3.13794216039265    2.29276921633363
H         6.09085434746148   -1.35056905098579    3.93477202024019
H         6.17437171468822    2.42286499291546    4.14594314814103
H         8.42674493508365    2.63970257338454    5.07434060983047
H         9.21863027409355    1.05564093474481    6.80172820196721
H         7.71743822391546   -0.74178591183912    7.58382463198463
H         5.46342004569934   -0.95939387813105    6.65449126312340
H        -0.04413222593130   -1.68197708879173    8.85504523942770
H         1.28319109145644   -1.50675119701199   10.03723303282297
H         0.89316187824251   -3.10920278972526    9.36524194515102
H         0.71284016180474    3.47712683308794    7.00025550988304
H        -1.37132945163688    2.26199024191477    7.29066878565530
H        -3.23719870765535    1.79521538022530    8.82231057760576
H        -2.90751314526087    1.97380942216308   11.26365853700340
H        -0.69847497732599    2.62049151487236   12.15503165660654
H         1.16254980200867    3.09149322848934   10.62352033599264
H         0.86027835398894    5.60305837531289    8.31293807622234
H         2.45139148530819    7.19096137406535    9.31157539029356
H         4.68154559850738    6.41330362715317   10.04006505253462
H         5.29672254323911    4.03871402606853    9.76769678722662
H         3.70055796291997    2.45162359007455    8.79108715631005

