41
CSD_code = FETNIB | q = 0 | S = 0 | Stoichiometry = C8H21CuN2O7P2 | MND = 5
Cu        0.25434491567829    1.18499066069919    4.02333734066531
P        -0.08074446205037   -0.79019481775349    2.08551795602011
P         0.21109003608565    3.64797428183153    4.28270537136364
O        -0.06520451648956   -2.07267069337551    3.10190396377020
O        -0.69272022227848   -1.17651954752556    0.81084090003482
O        -0.81171910176331    0.33710847230402    2.83659004272890
O        -0.99204512837289    2.98970561381838    5.15660120506483
O        -0.03399503514861    5.05466481941153    3.97006379712865
O         0.45514017813057    2.66860147441559    3.13834404718725
O         0.03686248306273   -0.07706278846014    5.16541712556829
N         2.08986550186799   -0.04742823215230    3.37128987623056
N         1.72551157944555    1.83771171699833    5.40243357413789
C         1.74199728148795   -0.36726134085072    1.99988867973402
C         3.25129036386339    0.69909069262829    3.78268902364226
C         2.99726444137844    1.13371163292459    5.24189483688070
C         1.66956716327591    3.29747564919571    5.38761723337203
C         1.87547338445750    0.81042958840716    1.05512654434468
C         2.49829063291061   -1.58345665757161    1.47641176272942
C         2.84440052970767    3.97897585405896    4.70897986337245
C         1.45133950017710    3.85207251289373    6.78692627228294
H        -0.38536431188599   -2.81731744027634    2.59049519994312
H        -1.66533030580138    3.65928575907685    5.30092712793250
H        -0.49578672258607   -0.72673855663932    4.70605789800338
H         1.94984384868122   -0.87187250195268    3.95038549577102
H         1.22776394636416    1.48567282302887    6.21704014971059
H         3.35468281757809    1.56555762479787    3.12963325809660
H         4.18449741256225    0.11762903091934    3.75304152777744
H         3.82547391648407    1.75294633040648    5.59188892663997
H         2.95059194000358    0.22735298609335    5.84923734872894
H         1.37305461847263    1.68415982190717    1.46544862079027
H         2.91886026975516    1.04653702420174    0.84788244690830
H         1.38166737194224    0.55023991826584    0.12127113133185
H         2.43126751407634   -2.40939560839792    2.18273800117788
H         2.05424398536259   -1.89937791194705    0.53565893085730
H         3.54795256508581   -1.34478267379759    1.30939885901037
H         2.59715811131622    5.03528034601336    4.61930696837595
H         2.97933963329209    3.59567908152556    3.70082866591876
H         3.77241293365921    3.88848958635417    5.27158973950108
H         1.23371773272045    4.91580275340945    6.71803040543624
H         2.33894767313632    3.71484821661313    7.40467645304568
H         0.60439552435373    3.36378449850108    7.26648342878522

