126
CSD_code = FETPIG | q = 0 | S = 0 | Stoichiometry = C48H72N2OP2Zr | MND = 5
Zr        4.84915655330649    8.61389180965398    8.96203231909638
P         7.00301421282492    6.96019391249129    8.99710195725539
P         4.01683261748408   10.77305465323696   10.41235820545969
O         5.20460085049990   10.06902178237889    7.69993389127198
N         5.37510741050990    8.33811901878126   11.05768070095217
N         3.56104062286289    7.42394196722185    8.31654770804171
C         6.52569010947287    7.82440295076244   11.58446262103962
C         6.84616602244702    7.94408384974186   12.95154200955125
H         6.12591644294239    8.40535548150235   13.61317065470075
C         8.04798667246830    7.50414254223701   13.45142918466986
H         8.25931145731957    7.61797563649210   14.50577869977249
C         9.00330893288617    6.91845992578974   12.62320317716430
C         8.70317494944809    6.78234733971824   11.27795853920198
H         9.43770529377101    6.31749525842866   10.63598735378540
C         7.49333290513041    7.21247456609338   10.74217644478039
C        10.31146294378664    6.44524448789632   13.18462963175501
H        10.86101425830314    7.27694978502824   13.62548471089594
H        10.92859040634634    5.99686557253704   12.40945146557162
H        10.14673455346490    5.70516970207111   13.96762061212833
C         6.31249314269518    5.20235127024401    9.11945759312395
H         5.84692961105477    5.00716218298945    8.14354238508779
C         7.33520562545633    4.11261829908261    9.43401192624945
H         7.90167635714251    4.36573794819946   10.32878002908820
H         8.02389996860848    3.94204792222932    8.61065522903402
H         6.81287497399193    3.17574862887380    9.62415524068151
C         5.21567481272266    5.20154765093350   10.18112670602255
H         4.68695334746069    4.24822610350575   10.17995782450375
H         4.50425060953163    6.01333350446860    9.97212061322027
H         5.64892152462217    5.34056850724038   11.17148266153743
C         8.62407448918484    6.64180553207613    8.10673234395240
H         9.13931239589945    5.80380528276548    8.58520807242148
C         8.31094923065111    6.28187289502052    6.65730871539088
H         7.78076033640202    7.10410323807036    6.17710382150865
H         7.69515832717627    5.38638642771631    6.59499683600711
H         9.23276386841460    6.10238596741134    6.10539775193591
C         9.51616621024886    7.87563852547316    8.16728461658517
H        10.47133170357083    7.67280389618775    7.68403171817992
H         9.71019882934516    8.16861988699813    9.19802095648663
H         9.04321230923343    8.70573645122890    7.64627751834101
C         4.20475599506410    8.40814249253998   11.77902425247147
C         3.78903249400394    7.43285026897929   12.70074789988130
H         4.44537023111828    6.60255415580644   12.92186839799738
C         2.55078644723748    7.50495083744566   13.30079593812454
H         2.25380046903647    6.73042244119558   13.99414316290543
C         1.67032092043215    8.54821579954551   13.02851595667291
C         2.07958417444491    9.53852118240947   12.14654776707572
H         1.40892963896582   10.36338901537004   11.94595018746762
C         3.32329644477754    9.49389039421384   11.53040533385273
C         0.31096326908739    8.59014479354724   13.66100878665119
H        -0.09038940829350    9.60128222592135   13.65669423233462
H         0.35054248387367    8.23265195789958   14.68804153710252
H        -0.37896783723277    7.94918417063860   13.11021048297071
C         2.48891010252431   11.54172479512232    9.65063018167105
H         1.81153365062747   11.94139453829632   10.41353200759224
C         2.91979476325878   12.66537634011582    8.71158248970394
H         3.57660763183450   12.25853127550357    7.94265685195399
H         3.44640799864544   13.45454047797611    9.24554231494048
H         2.05296104635982   13.10832048250622    8.22233081106688
C         1.79678205631838   10.43870391246308    8.85494259032016
H         1.03839039622967   10.86037633854968    8.19435809788872
H         1.31460599764256    9.72405982635158    9.52219817212480
H         2.54613173165014    9.89600897313676    8.25123852851795
C         4.57501157788819   12.07269748720720   11.66282690848406
H         4.90570675204809   12.92736242929202   11.05900846568376
C         5.77985595243894   11.50704944560795   12.41102867178651
H         6.23647213869837   12.27059360596357   13.03993600611494
H         6.53561540103714   11.13534542456354   11.71835131283331
H         5.46924520679257   10.68176400026154   13.04977274086857
C         3.50779388047725   12.53855276509898   12.64474883344534
H         3.11795702156312   11.69725356393855   13.21405791859477
H         2.68386216146921   13.03409584470765   12.13734208504131
H         3.94364750646325   13.24964251187590   13.34589236583095
C         2.37649990265948    6.67578982616784    8.12772644855298
C         1.58545851232104    6.52475164298040    9.45595061690625
H         2.22395907986574    6.04140899109394   10.20149885505970
H         1.34167640147393    7.52183175226223    9.83667562701300
C         0.31565795924463    5.70382999492025    9.24431832650721
H        -0.22161321715127    5.61413275994374   10.19746321049258
C        -0.58267339070810    6.39271192911596    8.21861898548716
H        -1.50349976491943    5.81870237602652    8.08436703607441
H        -0.85658581618542    7.38872854251868    8.57504119637298
C         0.16107797683853    6.50414640734752    6.88878461384827
H        -0.48431756060057    7.00159946419691    6.15326042737982
C         1.43324212922705    7.32673106270722    7.07931617220229
H         1.17460236906038    8.33489869962765    7.40270531106686
H         1.97531900260944    7.40427863949332    6.13463139438886
C         0.51941325470710    5.10822047795400    6.38524625315941
H        -0.38823006511670    4.51652011392631    6.23890525897688
H         1.03185046573410    5.17991625905861    5.42294284809824
C         1.42697844250680    4.43082426825579    7.40882805235189
H         1.69461827336772    3.42818430022724    7.05067374303979
C         2.69996753646133    5.25188861782525    7.60108524296471
H         3.24031915095627    5.34979899101411    6.65549094229296
H         3.35546968630222    4.74810592908014    8.31085536451292
C         0.68728068689174    4.30959244324590    8.74072970900415
H        -0.21563520886258    3.70680585249688    8.61145859817100
H         1.32273985325046    3.80900972714266    9.47526660180921
C         6.26353747053376    9.96540783518517    6.91202938359956
C         7.45618958700909   10.65151402606264    7.24115281294175
C         8.50189953471640   10.66710916594594    6.33237444427611
H         9.40360867810547   11.21711478242097    6.55730452385097
C         8.41074326335525    9.97891375726260    5.13427587378040
H         9.23149365382697   10.00600753532651    4.43299340906535
C         7.27057227306440    9.24951189719755    4.83880986341334
H         7.22420322320336    8.70744523042577    3.90635450306478
C         6.19331496017412    9.22094574118734    5.70967847672599
C         7.49858697859340   11.37423190759581    8.57121256325673
H         6.88911249558358   10.77882997557861    9.27941100944652
C         6.84549543891795   12.75175518717752    8.42071773677181
H         7.40051164041462   13.35003441987006    7.70011478209045
H         6.83290012954388   13.27875986499074    9.37350599035097
H         5.82498422189071   12.64047800922486    8.06422704531751
C         8.89895474457403   11.52532456329801    9.16071768150898
H         9.49994221127597   12.20935895294256    8.56570947575689
H         9.41063143991051   10.56783074858898    9.21321125675754
H         8.83099338678717   11.93301558119854   10.16832769758404
C         4.90092813497520    8.48901373115570    5.42296828384121
H         4.54023802524192    8.05762226914321    6.38859288007669
C         3.85742717629886    9.50839801738741    4.94440461048525
H         3.69123749192687   10.25474482812904    5.71886758033578
H         2.91131153498336    9.01765032253291    4.72732387767344
H         4.20576086605606   10.00859604358884    4.04137047752733
C         5.03812021729582    7.35926437531387    4.40416925960615
H         5.24981379342527    7.74811709398064    3.40976752017334
H         4.10519842062492    6.80169637728948    4.35241747242721
H         5.83074016256660    6.67091455447338    4.68911493611107

