94
CSD_code = FETQUQ | q = 1 | S = 0 | Stoichiometry = C46H42CuN2P2S(1+) | MND = 4
Cu       -0.29714036313601    8.71818959223473   15.48985228872498
P         1.17840666781549    8.98772354626879   13.84527793980237
P        -2.42419321804987    8.02693866285951   15.07781387364438
S         0.63009261839787    6.85670273913385   17.20489815588060
N        -0.37580012470024    9.69812771616270   17.24101855774506
N        -1.15700251866747    9.83249116806967   19.31264262937824
C        -0.85624974430391   10.97205079841642   17.42807512695818
C        -0.56898362818971    9.05486440012263   18.37124372574748
C        -0.17676925711546    7.64653078373792   18.63239539861605
H        -1.06061394257099    7.04306346187365   18.85119263621853
H         0.50793134083227    7.58442670910034   19.48194835697472
C        -1.36093552876141   11.06967174857987   18.74050423054370
C        -1.91592723501617   12.25009100964866   19.21272705536619
H        -2.30315087072563   12.33791579851399   20.21551725122844
C        -0.87510990166934   12.06526563666183   16.56926500864668
H        -0.45933314480236   11.99724874203468   15.57449092423763
C        -1.43227257635161   13.23226732121725   17.04646931746393
H        -1.46709424783665   14.10276065076225   16.41017314791163
C        -1.94654303002729   13.32056798901996   18.34248919808922
H        -2.37083609509407   14.25559679787451   18.67311972999314
C         2.27527198269795    7.61505132141185   17.34397946191557
H         2.85390034766949    7.28275652019878   16.48786522488492
H         2.74844685618992    7.27612412204884   18.26136824133202
H         2.18045653574272    8.69636242373889   17.32507274693659
C        -1.50520810489848    9.42903725675659   20.64644266508692
H        -2.10222577444643   10.21122428559850   21.10872913861651
H        -0.60859148470559    9.26745433308258   21.24936430913333
H        -2.08859743314357    8.50740638874013   20.62145124490056
C        -3.37185143810471    9.16477887200944   14.01752801905306
C        -4.32841936393650    8.75295849167227   13.09773639920912
H        -4.56216400378302    7.70419896291702   12.98586363604157
C        -4.97866039046409    9.69394666100589   12.31843442170092
H        -5.72376351864704    9.37289349331044   11.60591179292163
C        -4.67932989775148   11.04035751602381   12.44699941976554
H        -5.19252450770095   11.76755016254266   11.83654954847777
C        -3.71552565465910   11.45296268913858   13.35300669497053
H        -3.47175864429579   12.50033596795752   13.44961796440382
C        -3.05831675762828   10.51743038794061   14.12792766443669
H        -2.28876825490994   10.82473983407690   14.82418256911836
C        -2.76079695846988    6.38658700778278   14.37450201016937
C        -3.97764331985332    5.72469857521923   14.52041129526513
H        -4.77246138396387    6.17308673306978   15.10109114959050
C        -4.15891922857808    4.49033471226652   13.92411106207296
H        -5.10110122908193    3.97499010251517   14.03644449604550
C        -3.13808966561247    3.91316198561336   13.18348850177316
H        -3.28904691831622    2.94941217923211   12.72169165480394
C        -1.92591139002566    4.56808076504329   13.03954701214348
H        -1.12807616779349    4.12038816538191   12.46606491867762
C        -1.73734971946296    5.80103157179294   13.63627216335895
H        -0.79119696515386    6.32005667491986   13.54133151007591
C        -3.36080144758588    8.03091301819462   16.63933705341525
C        -3.95791676515007    9.19263144557161   17.11934675339194
H        -3.98539927026253   10.08077748976553   16.50362458447060
C        -4.52822502249579    9.20816650712274   18.37975522505998
H        -4.99804122897243   10.11031638465259   18.74252154898989
C        -4.50429092304254    8.07097358534840   19.17098210840681
H        -4.96152473621947    8.08258039928675   20.14908976338290
C        -3.89811423662712    6.91489917166429   18.70244664564942
H        -3.87918776532479    6.02634978576307   19.31710831050136
C        -3.31630133111989    6.89622934624270   17.44811015905735
H        -2.82956053982222    6.00066797165541   17.08391374479410
C         1.69895299756578    7.55870371847723   12.84768772628638
C         1.96032792090433    7.64942674734659   11.48344343577402
H         1.84578505151895    8.59595207887216   10.97313425672125
C         2.35771795179543    6.52338819592176   10.78564442800356
H         2.56160351615893    6.59380563252226    9.72774296599099
C         2.49316415018366    5.30781530562176   11.43834801331062
H         2.80184159633804    4.43293133863176   10.88677351050273
C         2.22718476528102    5.21267615559982   12.79484650116540
H         2.32528731412688    4.26518193121526   13.30305015965723
C         1.82914180790708    6.33455846934298   13.49879658008880
H         1.60273965065694    6.26635566096770   14.55621985850652
C         0.34562241791715   10.05380444585431   12.63225791373241
C         0.66542024234001   11.39495602252562   12.45845948795467
H         1.49886372434067   11.82691225792530   12.99540638195563
C        -0.08083897821948   12.17146872915980   11.58838345384017
H         0.17221190546958   13.21208706026754   11.45003876862648
C        -1.14513063880670   11.61870387886144   10.89616576339400
H        -1.72115517337714   12.22786781652885   10.21664518458124
C        -1.47319213526907   10.28346897098723   11.07570584921667
H        -2.30481067240317    9.85192033002596   10.53950765288217
C        -0.73908223637958    9.50579122712490   11.94852036881287
H        -0.99519323210333    8.46426214193543   12.10199624523231
C         2.73516765575024    9.86291452256261   14.19881318286649
C         3.89570945632612    9.69939946283064   13.45138401770180
H         3.90991547874510    9.01969046691193   12.61165471546673
C         5.03379769669768   10.40949412443292   13.79133335657891
H         5.93537357201035   10.28347988445391   13.21110463234922
C         5.02115404469277   11.27884100321502   14.87035321281733
H         5.91254556785894   11.82958260760770   15.12874399504678
C         3.86742299092533   11.43821771506695   15.62220204487099
H         3.85829543486587   12.11331514224407   16.46522208193324
C         2.72948016092210   10.72694268966772   15.29188645770786
H         1.82138651523679   10.83318572532528   15.87439040893538

