26
CSD_code = FETROO | q = -1 | S = 0 | Stoichiometry = C12H9N4Pt(1-) | MND = 4
Pt        7.27001258012926    4.80610299930330    5.39230672537306
N         5.61778616003154    7.31141281165101    4.24175488177001
N         6.25400413636064    6.11906178545927    8.04522012702305
N         8.72726887128302    2.51035645810776    6.88747731418459
N         6.58482135610692    5.96989186117404    2.86780543590168
C         5.95937815908943    6.91553514912844    2.11037968596865
H         5.98212280402088    6.93004342672367    1.03948368658667
C         8.38917011781799    3.47842862536758    0.82584616445330
H         8.59700695202221    3.24621067294031   -0.21160805713922
C         5.13981272591607    7.96716810554351    5.42623986852308
H         4.04935310083570    8.02827929196356    5.40907822183870
H         5.45555646428405    7.39848916109381    6.30131595687429
H         5.54887139521120    8.97843660426508    5.48917493103320
C         7.36390869450719    4.85856241047139    2.47678606836423
C         8.88886088007547    2.68358166805340    1.84185399931824
H         9.49445860930670    1.81959160881968    1.59394035819215
C         6.38352991314616    6.19969601191131    4.19014270983578
C         7.84763937463887    4.08338493599672    3.54871110437045
C         8.62109611176822    2.98357736802448    3.16969649023704
H         9.02800146382691    2.33936380097343    3.93792147058543
C         5.34906789692483    7.76295194851478    2.97520716415107
H         4.75420988815807    8.63614719385227    2.79267242829524
C         6.66353621577394    5.58052479363413    7.10400466174478
C         7.61552130957685    4.58230945447260    1.14418443905821
H         7.22153793155680    5.20946819516651    0.35305929817092
C         8.17486688763140    3.37902365739071    6.36094486528238

