90
CSD_code = FETSEE | q = 0 | S = 0 | Stoichiometry = C44H42NiOP2 | MND = 4
Ni       44.69543877155380    8.54149780652600   18.72001708261018
P        44.59349097923827    9.89959855176070   20.47152361378017
P        43.16147528332651    9.00637499532746   17.19769794103923
O        43.55113064961407   11.30804946272253   18.55228289934720
C        46.49948452486652    7.60960189942538   19.01721528888632
C        47.59805739489627    7.92920876372398   19.94319567375288
C        48.04423008129077    6.65715628739127   20.67290444972904
C        46.95571296472529    6.13950185462650   21.60444770560325
C        45.90081843642670    6.99757945316985   18.12458759735406
C        45.47213499920367    5.88248736744136   17.26647298533341
C        44.59573825073315    4.92175394533980   18.08239250290884
C        43.34156241263906    5.62249578720727   18.58665162443268
C        44.94321435172830    9.35292044888083   22.17717850185567
C        44.05446243107919    8.42677776466796   22.71941425667671
C        44.26049134983153    7.90397139553285   23.98103579399708
C        45.37345348941622    8.28723511507790   24.71324617941190
C        46.27644839396520    9.18675082790507   24.17235941170961
C        46.06709519780795    9.71493473889541   22.90970010352789
C        45.80813185321038   11.23533740912062   20.18543551616229
C        46.56722134214038   11.15288808000058   19.02487659618953
C        47.46904036262750   12.15024410053886   18.70543979247036
C        47.61262494391948   13.24043393965312   19.54834002822577
C        46.84457540764497   13.33672406468478   20.69842623690027
C        45.93725919819826   12.34198931128994   21.01621852225021
C        43.15032692455002   10.98347510656992   20.77550247418397
C        42.40854949481680   11.16326101179302   21.92839712539616
C        41.28750193232261   11.97950520796901   21.90427462559620
C        40.89344549724998   12.59605100252280   20.72985449635373
C        41.61752487319559   12.42201176409379   19.56017365174330
C        42.74695022625267   11.62653232670056   19.59664081847193
C        43.34116430028030   11.69963836529468   17.26021535059644
C        43.35696566552228   13.01711645421291   16.83873938912386
C        43.23101762998176   13.28436739353703   15.48453008335039
C        43.10848791582563   12.24670072091956   14.57620932870634
C        43.10393697511157   10.92823207853430   15.00445101534931
C        43.21252051132850   10.64086678719801   16.35566488926334
C        41.50385065249250    9.24253898989268   17.94781626193826
C        40.46806205426992    9.89641883742402   17.28849298819835
C        39.26772520211175   10.12101626049946   17.93675583759902
C        39.08950388337761    9.69946019551324   19.24496176857731
C        40.11229256288402    9.03908062589510   19.90317107217268
C        41.31202627951114    8.81337689808870   19.25439220209890
C        42.76461166787264    7.95602136337977   15.75598912736632
C        43.76758310693861    7.78862202783809   14.80212402280376
C        43.57486898221691    6.95857765822025   13.71439750255590
C        42.38132980263316    6.26669388840151   13.57762231584350
C        41.38980790542575    6.40749897541326   14.53381759699384
C        41.57933512092082    7.24440551348306   15.62022035009995
H        47.29526115785300    8.67985221203843   20.67787330682906
H        48.43229295779879    8.34028553947303   19.36440489409979
H        48.29179942436745    5.88983404568671   19.93541872020316
H        48.94677076371617    6.87650124442139   21.24920737876624
H        46.03281267794868    5.98532344508532   21.04995908063813
H        46.75781143581969    6.85721769800810   22.39772155372776
H        47.25183829081919    5.19608478979401   22.05830944830554
H        46.36794162574039    5.36121156974747   16.90967734311485
H        44.90922007000781    6.23418500967352   16.39929488929083
H        44.32227072151897    4.06771729465298   17.45785180634602
H        45.17494262959511    4.54971688165266   18.93148911123991
H        42.66549101194491    5.84205865823851   17.76166156939429
H        43.62521106161863    6.57515871255571   19.06768452320838
H        42.81476251731378    5.01487508354372   19.31912603957145
H        43.19809007643178    8.11799370194435   22.13335497796059
H        43.56067608281838    7.19150795776089   24.39389663648050
H        45.54135456989485    7.87741406205032   25.69853181917554
H        47.15251588685090    9.47624928903285   24.73541949744791
H        46.78415377546458   10.41027578888002   22.49578365571884
H        46.41793747955309   10.29619787802615   18.36780946796405
H        48.05550608307093   12.08444995713772   17.80007842268598
H        48.31689259349518   14.02313059075348   19.30499015548348
H        46.94987881319270   14.19573579943648   21.34620829255161
H        45.32330745891640   12.42458362946609   21.90317285856016
H        42.70117238976970   10.66887379570425   22.84348424037127
H        40.71388531702959   12.12740331880660   22.80719835969842
H        40.00994141355214   13.21673838721262   20.71651374276536
H        41.29650452856400   12.88081279089082   18.63658165452389
H        43.47646621989517   13.81434705098223   17.55775562661612
H        43.23504128368207   14.30754281570286   15.13962443830163
H        43.01258659924474   12.46473832282035   13.52270116905155
H        43.00156657047253   10.12951136838302   14.28456650309853
H        40.60451897121703   10.23172964673287   16.26916756347275
H        38.46760538498265   10.63350222803091   17.42158626273115
H        38.15322867408764    9.88812796609354   19.74958089923951
H        39.97704118178118    8.71020288182862   20.92324213881542
H        42.12905611499966    8.31264065757539   19.76171184971420
H        44.70347901656258    8.31990492557780   14.92865297213156
H        44.35582623419461    6.84276002953042   12.97626670781104
H        42.22870498204760    5.61331502265132   12.73110637197087
H        40.46305327846260    5.86047334758946   14.43435689025443
H        40.80250043659449    7.34503178052201   16.36540256247556

