60
CSD_code = FETTEF | q = 0 | S = 0 | Stoichiometry = C24H32N2OTi | MND = 9
Ti        5.89729360999575    7.21104009260666   13.73130813781625
O         0.38697551546593   10.42286654551651    9.71853421096588
N         5.82929713281360    8.05710812304579   15.55138774392573
N         4.16671300034454    8.90781744236216   13.51774252351419
C         5.10984844317013    5.19826478846291   14.74957226995868
C         6.05382840106821    4.86960915045418   13.74128940951858
C         5.51035945780537    5.28855906607020   12.48792482911107
C         4.22495560288117    5.84348142980531   12.72815273994152
C         3.98776986292285    5.80047695902182   14.12742714751018
C         5.17976016388580    4.81141865847926   16.19848665291357
H         6.20914773775948    4.65282055883857   16.51517331427119
H         4.63092509740532    3.87995752548462   16.36390018783586
H         4.73763766346320    5.57846587074256   16.83434923044029
C         7.23224154409054    3.95241263913456   13.89867348500655
H         7.66295889642092    4.01912598716679   14.89577020631745
H         8.00902599588075    4.17572944790200   13.16981932736290
H         6.91098541795419    2.91903942629432   13.74136197348832
C         6.07450712024328    4.93048925845759   11.14188911611107
H         7.15982674958084    5.02921186161480   11.13156459909066
H         5.66152149243057    5.56800605636162   10.36274357813398
H         5.82797921343613    3.89319623568566   10.89809133364740
C         3.23699248991892    6.17226432795267   11.64496046616664
H         3.64745887279345    6.87690160923743   10.92082100518409
H         2.32666509987763    6.60627668713229   12.05086999474218
H         2.96735066268694    5.25913558113046   11.10795861183027
C         2.71675371391781    6.13421951533571   14.85437365257512
H         2.33568260823136    5.24361514996346   15.35969155256817
H         1.95049822646136    6.48266892830226   14.16562348617477
H         2.87665922720398    6.90251630600428   15.61525751668829
C         7.96387348018586    7.05977942241306   14.08860531380342
H         8.16977965801758    6.45126544304040   14.97289527118183
H         8.38737856056297    8.05716285794591   14.27049641091965
H         8.52334728565580    6.61641613142685   13.26036485287054
C         6.52606662860471    8.17657187794034   11.99868800734780
H         5.72540243126997    8.11495094679314   11.25499615282792
H         7.42784269733911    7.77792117871590   11.52425476491921
H         6.71946466084042    9.23999414464503   12.20724062184541
C         6.44355794568972    7.88130506938562   16.72891355106974
H         7.26634086777451    7.19652953989034   16.84842081214011
C         5.87575886774544    8.68105771410462   17.71940687317806
H         6.17902216280584    8.72982719295435   18.74790292272382
C         4.85160400869171    9.39182180138798   17.11187832247320
H         4.19151489082734   10.10835596213319   17.56340664510611
C         4.84078099317958    8.98764114111459   15.76838350999729
C         4.00499834821904    9.38360559079989   14.70827705548224
H         3.22568113465359   10.12460102581209   14.92243820189800
C         3.24319417828276    9.31711858040374   12.54701146443642
C         1.86899341051873    9.18236018288670   12.77331694231244
H         1.52465746114274    8.76682435643182   13.71000745773858
C         0.95229868832696    9.55164031432727   11.81514244779335
H        -0.10662947553955    9.43526304121032   11.98529185612949
C         1.37427599371226   10.09352206649508   10.60080997888411
C         2.73579274647181   10.26733997678573   10.38210946175694
H         3.09938380863448   10.70971476335482    9.46779069916975
C         3.65357370023193    9.88531801628270   11.34481941556528
H         4.70297711250514   10.06112171446133   11.16909131173915
C         0.75374239218668   10.98092694429087    8.48146180168495
H        -0.17950924101294   11.15613900465313    7.94847722823983
H         1.37859830057227   10.29534691481609    7.89947692607349
H         1.28021728180760   11.93266185451194    8.60880541589104

