23
CSD_code = FEVBOA | q = 0 | S = 0 | Stoichiometry = C10H8Br2N2Pt | MND = 4
Pt       -0.73660816710951    1.67088484847716    7.46956777532896
Br        0.09375653207860    3.82500598562643    6.92251480947396
Br       -2.72997237886535    2.69893736899501    8.24287685654259
N         0.90861774407232    0.66769351725801    6.84382264572915
N        -1.32340065034048   -0.22226447904698    7.89015824046630
C         2.01454320291112    1.19452622540196    6.31757706970340
H         2.03849934766626    2.27067143013346    6.21347187714050
C         3.09170971494615    0.43015222170361    5.91671891911006
H         3.96033668303314    0.91021521554499    5.49759590150626
C         3.02890565666283   -0.94943415194650    6.06439109638906
H         3.85135339834047   -1.57870003986962    5.76266273139831
C         1.88642070235206   -1.50123522588755    6.60846327938707
H         1.81178191859693   -2.56836801470769    6.73389179743639
C         0.83113150980261   -0.67429038884178    6.99465853072662
C        -0.40946302185595   -1.16902321853893    7.57706245545102
C        -0.66850642316585   -2.52010067391205    7.80956538714840
H         0.06817953668309   -3.26397347062395    7.55658992350910
C        -1.87228561813641   -2.90378445908718    8.36591199902992
H        -2.08349757023086   -3.94541230795810    8.54990285200383
C        -2.79927885732041   -1.91880544520065    8.68098335071468
H        -3.75328064800038   -2.16489220549278    9.11683308796003
C        -2.48384433012054   -0.59909375328570    8.42751903772362
H        -3.18819828200002    0.18659102126053    8.66436037612192

