83
CSD_code = FEVLAU | q = 0 | S = 0 | Stoichiometry = C28H44Cl2F6Si2Ti | MND = 12
Ti        0.16336632360756    2.38838530644728    9.44349908441565
Cl       -1.48398917477563    1.02437767069822   10.06519482193831
Cl        1.54818078656819    0.70639634889694    8.98107847376243
Si        0.81024817827231    0.91880581223213   12.62412160966700
Si        0.14339966544494    0.61081181432809    6.12428393800238
F         0.01347237122707   -3.72321379289828   10.23812750769466
F         1.54082042170206   -3.63075476742852   11.74424443042939
F         1.88590298380464   -2.75577831474056    9.81235008745232
F        -2.47352215878167   -3.94918669214879    6.26130029944053
F        -2.31872240501379   -2.88136141353815    8.11991632645772
F        -0.59862962833610   -3.89478143236348    7.30935112325534
C         0.81495710590223    2.41701179998339   11.45301380015584
C        -0.12498403490959    3.52049377499787   11.52554803575730
C         0.54653783735730    4.71192808461616   11.18733399307702
C         1.87052129463043    4.38534691797219   10.81299866212924
C         2.03911592439996    2.99890015927260   10.94885756762553
C        -1.47044407427236    3.51319563022123   12.19293689642026
H        -1.34928828979032    3.69922437759664   13.26260032447287
H        -1.97888329049850    2.56116677855633   12.06767212523771
H        -2.10580154002706    4.30342465772362   11.79366081718599
C         0.01271249103864    6.08767376364676   11.44009186002412
H         0.02838489675633    6.28224242853704   12.51498664923206
H        -1.01944483236009    6.19504396659581   11.10995708318912
H         0.61725383790527    6.85118009578915   10.95707023125462
C         2.99832484152861    5.32951221059446   10.53173646032884
H         2.64964027448001    6.34570698401709   10.36483385590769
H         3.58174710614509    5.00737433965467    9.66865042075491
H         3.67527356594887    5.34802874288714   11.38885018055522
C         3.38305687167311    2.34297142948811   10.84477052559658
H         3.82161672919598    2.49151376407512    9.85626889410364
H         3.32539107208202    1.27689369700260   11.03796781848496
H         4.05831074092202    2.79125090901070   11.57716530426383
C        -0.14885540318127    2.18527813490265    7.13038255817140
C         0.77863814624603    3.23655772876199    7.42651328062115
C         0.07562277525382    4.29729367157401    8.05955157820119
C        -1.26547412034977    3.86407842486662    8.25433559409536
C        -1.40742904085380    2.59258495971438    7.63441161284941
C         2.19696468040272    3.31985071272488    6.94778812958999
H         2.22020680176525    3.57073995492875    5.88516870468100
H         2.70935780548032    2.36910924911028    7.08297919890552
H         2.74425603471280    4.09303925555239    7.48672810392503
C         0.54373939666648    5.72139292386899    8.09934792104491
H         1.58496172634396    5.80761608759662    8.39518969352006
H        -0.06324664954422    6.32847286879773    8.76378970259993
H         0.45187559161314    6.13826430139015    7.09216377849621
C        -2.42473581942812    4.67266709431109    8.75610836381371
H        -2.09506923859803    5.58392530637723    9.25009106024429
H        -3.03066485989145    4.09216051077980    9.45461986401882
H        -3.06594017113679    4.95784581316976    7.91858572937746
C        -2.72847491752267    1.92706085602743    7.40689659039396
H        -3.22542488634580    2.40154022415898    6.55690357949809
H        -3.37910670913984    2.02979360878440    8.27490322418857
H        -2.61091995437715    0.86898603030096    7.19169894491180
C         1.44902799748969   -0.76869060955420   11.94113194461239
H         2.27247949299979   -0.63451460265726   11.24145419844923
H         1.84563686215273   -1.33368196048794   12.78591890009885
C         0.37832948318000   -1.60964338825801   11.25471847322543
H        -0.43877611429594   -1.84604819410114   11.93591015693230
H        -0.02811409866669   -1.09005832592027   10.38576657194892
C         0.95142573772582   -2.91958083226552   10.76218762328917
C        -0.85163113479671    0.53232620588012   13.49013842252369
H        -0.72309981395644   -0.34854765373913   14.11231189527309
H        -1.65402379446049    0.32592282629140   12.79041787657625
H        -1.16767508206783    1.33956307268046   14.14133487804936
C         2.03599422115045    1.41004983291613   14.01652890716107
H         1.83873492396743    2.41304709861883   14.38096061091367
H         3.06753495486798    1.38082613203615   13.68401866663794
H         1.94580033303413    0.73177024372156   14.85774507989750
C        -0.44738889199667   -0.95762762939528    7.07885041759655
H         0.42552047542665   -1.50303114786373    7.43879873183089
H        -1.02577968835117   -0.68207121691040    7.96284824046351
C        -1.28198806129019   -1.89757221049010    6.21743823110535
H        -2.20994524794356   -1.42520160157041    5.89278582033436
H        -0.72660629768688   -2.21771778717598    5.33537717232290
C        -1.65988606230662   -3.14906546502583    6.98359556248993
C        -0.89171727912073    0.84281933031396    4.52646030302692
H        -0.60013300312066    1.74952360265856    4.00570184734998
H        -1.95720652241055    0.90890111781852    4.71576635367927
H        -0.72936188588167    0.01366015974360    3.84669426226415
C         1.92756508272291    0.26257140283270    5.54007298916400
H         1.92856718864159   -0.63450767076029    4.92797463566036
H         2.60639031356857    0.08857372984322    6.36786399653076
H         2.32571883154020    1.06746277138407    4.93173080917656

