57
CSD_code = FEVQUV | q = 0 | S = 0 | Stoichiometry = C18H30F5INiP2 | MND = 4
C         0.00045522449450    4.26388159522390    0.00003758665240
C         1.13342805722684    5.01465377170083   -0.30134381867072
C         1.15207241341321    6.40087481196476   -0.30405449931166
C        -0.00100315362809    7.11024783102184    0.00057762467196
C        -0.34113038936561    3.71488384524854    3.26720070284000
H         0.11055775111303    4.64130134829549    2.89976397214061
H        -1.41951072188305    3.79616876817528    3.10911629339620
C        -0.04395936767057    3.54982920941603    4.75171810843784
H         1.02229514759055    3.42975673651341    4.92787738257230
H        -0.56612921467930    2.69137773246113    5.16559140473657
H        -0.37754378257151    4.43459861374340    5.29098173264987
C         2.10218301589366    2.38811343407223    2.45466913809726
H         2.43074495276128    3.43076264955653    2.42412641955533
H         2.33549506581784    1.97507860673232    3.43921825105231
C         2.79477995209270    1.59373301310044    1.35218226183399
H         2.46814721107841    1.96485615308192    0.37397089410740
H         2.53412932410856    0.53967042562518    1.41504249640431
H         3.87633965753406    1.69300668032578    1.41643274745397
C        -0.24026128926986    0.80993201667671    3.00108275678579
H         0.26979919901573   -0.00181048825474    2.47876584807473
H         0.09431171421681    0.82401813975331    4.04134755757087
C        -1.74592625013975    0.61038498882771    2.89299202136428
H        -2.03242466539065    0.60874520178325    1.84278031700841
H        -2.28895215688745    1.40596433989232    3.39940873518113
H        -2.03888559715831   -0.34116018217251    3.33165400197459
F        -0.00130803011925    0.62198790073759    0.00031697774409
F         2.26796364272024    4.34593237991024   -0.61889372323375
F         2.27997125049422    7.06351502279936   -0.60413693262691
I        -0.00208869542981    9.21038570299416    0.00090649253589
Ni       -0.00034564548433    2.40323032512188    0.00011416476831
P         0.28062550842641    2.36431799278170    2.16762375537550
C        -1.13323261897042    5.01346287451690    0.30172118643108
C        -1.15338766290002    6.39962842524119    0.30496352240476
F        -2.26691319722006    4.34316379506433    0.61913873389043
F        -2.28194951451332    7.06101054775064    0.60532531849063
C         0.34226195041719    3.71439188392013   -3.26677659444287
H        -0.10941616996605    4.64097811083166   -2.89976478807680
H         1.42054259998573    3.79536351018254   -3.10785088022721
C         0.04620882854922    3.54933469791228   -4.75151526148340
H        -1.01996571904810    3.42984149141386   -4.92853828078922
H         0.56823398409950    2.69053699945861   -5.16484716507920
H         0.38073344623520    4.43384481366157   -5.29062127553152
C        -2.10205403500246    2.38864375805220   -2.45564879653639
H        -2.43035511689854    3.43135671288752   -2.42450817738480
H        -2.33478871515021    1.97647799671619   -3.44070535003291
C        -2.79568890274931    1.59356632173217   -1.35432976831901
H        -2.46997905262873    1.96401175381540   -0.37560247061727
H        -2.53499897577759    0.53954395170044   -1.41762019162252
H        -3.87718778696362    1.69288769979467   -1.41957534815934
C         0.23986804771967    0.80953770389034   -3.00062774770349
H        -0.27069089032758   -0.00197571600760   -2.47844998388854
H        -0.09436112173028    0.82370154754037   -4.04100618600820
C         1.74540296165121    0.60930077404978   -2.89206023421807
H         2.03154222486080    0.60718890556807   -1.84175496294703
H         2.28894665072834    1.40480319858364   -3.39803948358906
H         2.03809836714526   -0.34222851139852   -3.33093591946460
P        -0.28069970970432    2.36418818585867   -2.16744056627609

