64
CSD_code = FEVSOP | q = 0 | S = 0 | Stoichiometry = C22H37CoNP3 | MND = 5
Co       13.17391540952634    2.13018125983270    5.78221982753502
P        12.03736850611739    3.96686471443737    5.25409921690105
P        11.49607489122424    1.01926156302226    6.81651770131863
P        13.63471906106968    1.42129959636839    3.69038907698314
N        14.22934942147346    3.22656157167724    7.00507058412929
H        14.13683316313054    4.22046963552719    7.21742857722943
C        15.13303797816686    1.19423724018321    7.56272094132552
C        13.00621507328509    5.36343626713036    4.54112925686263
H        12.42766125415951    6.28685323926306    4.56786839362196
H        13.27680660243250    5.13691287193882    3.51360382849717
H        13.92182351611911    5.49068923495435    5.11464481564719
C        12.50891532218590    0.19421415327400    2.89704778722915
H        12.86028978857743   -0.07618569429047    1.90196972419566
H        11.51350825825666    0.63042989381080    2.83009731960278
H        12.44922129147432   -0.69672727249543    3.51690757028014
C        16.22930916121186    3.39482391238759   11.30709856699544
H        16.21520922408121    2.95456303300174   12.29412566522202
C        16.03514741923416    0.32419430433688    8.18093964786676
H        16.70533948943500    0.69665860333661    8.94417014686962
C        11.29847633685286    4.89001420229287    6.67128030302095
H        10.76285549821734    5.77059666708039    6.31633702867073
H        12.08644111406650    5.20172720367322    7.35400792018709
H        10.61247371464922    4.24679187746813    7.21748495143019
C        11.33869932071712   -0.81092502438410    6.94927484116083
H        10.51226541235452   -1.06598006908633    7.61194858581062
H        12.26338596502131   -1.22477338745365    7.34253123635814
H        11.15218576600211   -1.23389575775029    5.96405929517497
C        15.00571624537916    2.59746557063796    7.84492832963022
C        14.35726581872500   -0.58714208812191    6.17523463337536
H        13.71579276385364   -0.97568491054855    5.39333199917701
C        14.28291662252767    0.76198382273632    6.51643438450265
C        15.26287752322768    0.63496525110722    3.35271998708653
H        15.34155928214525    0.34785409779110    2.30425579952400
H        15.40567640707898   -0.23399545891275    3.98737766583273
H        16.03849579645149    1.36014587320460    3.59376545734887
C        15.64759314540059    2.72435355746684   10.24882226611960
H        15.16224151299266    1.77306400258281   10.41154316392234
C        15.65098186116876    3.28103520094203    8.96860138639456
C        16.24235444836245    4.53273817307169    8.78668771018923
H        16.26260494830176    4.97153467614653    7.79788625612801
C         9.69468169690177    1.36026356353455    6.55424379398087
H         9.09016665787733    0.82756317417901    7.28752425556251
H         9.41862896950595    1.03010571291666    5.55390760075844
H         9.49608874722561    2.42567912645403    6.63619607472804
C        11.60606993708774    1.39150687178382    8.61400167767299
H        10.79880509047635    0.91247472340665    9.16750191626790
H        11.57272452009309    2.46781000723595    8.76906123735931
H        12.56699484285236    1.02487628763436    8.97022852240060
C        13.71400735631863    2.62734418026616    2.29460200204985
H        13.94380636984189    2.11293382536878    1.36172849995972
H        14.49922930172789    3.35045278497541    2.50697077450811
H        12.76820968148807    3.15243017573126    2.18866049867606
C        15.23392582186272   -1.45478692158328    6.80050595486184
H        15.26799068436576   -2.49545061608264    6.50219208592026
C        10.58265636112558    4.02781212222175    4.11920046160507
H        10.27221194221123    5.05802645801470    3.94717116074360
H         9.75867972180628    3.46903906399627    4.55599943528684
H        10.83788234143127    3.56423737484428    3.16891287126380
C        16.08250568575262   -0.99848167150772    7.80278813565619
H        16.77749355748647   -1.67821203338997    8.27636872461175
C        16.82966054439757    5.19641755036781    9.84603812939607
H        17.29452904825277    6.15920447692613    9.68649122157826
C        16.82669076943477    4.62993693510283   11.11044116026619
H        17.28555601581552    5.14950521996187   11.93890195553620

