54
CSD_code = FEVSIJ | q = 0 | S = 0 | Stoichiometry = C16H33CoNP3 | MND = 5
Co        2.44944869424432    0.12310949428824    3.51229136252899
P         2.87630745002829   -1.83922370187841    4.46214077064396
P         2.75944935595380    1.40327069700110    5.27634102596441
P         0.69305194743031    1.17915903441084    2.65486537096311
N         4.22916365538256    0.76051761549191    2.42633545827369
C         5.20356215970398    1.61835676908768    2.69010503641071
H         5.14540532583208    2.13355882660071    3.64005990704238
C         6.26002457886338    1.88100582878730    1.83953415426117
H         7.02176861572587    2.59371629201280    2.11696383752439
C         6.31521048555719    1.20565183882387    0.62240133780270
H         7.12589068095404    1.38410032068157   -0.07031008830863
C         5.31549013581046    0.30986099106633    0.32741098784013
H         5.31402963012550   -0.23888381669832   -0.60337276080885
C         4.27559383426020    0.09921229350439    1.24621776008816
C         3.20037836868848   -0.81160047262059    1.02249875421830
H         3.18554942891642   -1.37408040485191    0.09242173876461
C         2.25704201180450   -0.92751946050317    1.98097166175587
H         1.44362239666359   -1.62955043236246    1.79409983978283
C         4.67353559666192   -2.21142923665191    4.36266062655554
H         4.89642561915749   -3.20070706167387    4.76155805209481
H         5.23104965228001   -1.45590295835550    4.91162323704780
H         4.96667032107143   -2.15933612634224    3.31578767793952
C         2.23884495423625   -3.41146217083697    3.74676257440990
H         2.58885078940994   -3.50633161361025    2.72196620010477
H         1.15067768401767   -3.39479264171089    3.74720243627893
H         2.58783587711410   -4.26274544352918    4.33079267526448
C         2.57341527295024   -2.27673533787213    6.23713195095807
H         1.49826086379235   -2.30033385956576    6.40864909452603
H         3.01374895492833   -1.53325326013248    6.89622447305955
H         2.99576408229973   -3.25395908315824    6.46893561519744
C         1.50774459965037    1.31603967189361    6.62584025730913
H         1.76587582858236    1.99180104850428    7.44098966101319
H         1.45483975658785    0.29658796558164    6.99933229336992
H         0.53191980640721    1.58069623627533    6.22698087015071
C         4.27470569961821    1.20771352863361    6.31384881735466
H         5.16257635771909    1.35141188215476    5.70253864616861
H         4.30803644065276    0.20074480707157    6.72311998659422
H         4.27807265270784    1.92875834752940    7.13132796001268
C         2.81755617739260    3.23969223528967    5.09053336281811
H         1.87913333366080    3.59311219984061    4.66987884713927
H         3.61682323828834    3.51672950386897    4.40713736314773
H         2.98361721045972    3.72003483265852    6.05482768583814
C        -0.58273300683297    2.12503679879224    3.61001109234721
H        -1.25173383894565    2.65669228663788    2.93408805440777
H        -0.11055601816356    2.84011164997150    4.27840046200778
H        -1.16065501413819    1.42052105054882    4.20637245288868
C         1.25054090029774    2.50263769329684    1.50777686236725
H         1.89761788851400    2.04579206411857    0.76137082457849
H         1.83141011790654    3.23868008283246    2.05919809663052
H         0.40499310125438    2.98655164393624    1.01957491858765
C        -0.48406561086234    0.32420971845777    1.52610231284467
H        -1.25540920926152    1.01584314907408    1.18819489243678
H        -0.94959659913047   -0.50753151119996    2.05140261687857
H         0.05881776375172   -0.06173980518066    0.66708089493582

