56
CSD_code = FEVTIJ | q = 0 | S = 0 | Stoichiometry = C12H38IP3SiW | MND = 7
W        -0.00004296405897    2.99483668142233    7.33790243658647
I         0.00032115063281    4.09834834416380    4.70702120854919
P         2.45615487235316    3.01240617493957    7.02847829210776
P         0.00000539734323    5.39220480743939    7.99692815208215
Si        0.00004541341760    0.77014178742276    8.69736572895528
C         3.34525009499484    4.41289226435443    6.20863975256415
C         3.50838042666754    2.80599477990046    8.52790333148465
C         3.10479223479276    1.67455929663691    5.94835410077692
C        -1.45517651152592   -0.47609225457597    8.39214713182397
C         0.00018222528831    0.88320823311038   10.64406298495057
C         1.37349281171904    5.88263497620594    9.13034574274260
C         0.00002971353723    6.87690066437359    6.90345331831624
H        -0.00000358973157    3.29242430642995    8.99939069586873
H         0.00023621528895    1.68238583849067    6.32005323677871
H         4.42083492799197    4.27962402625274    6.32666137722938
H         3.05350638720250    5.37356921685226    6.63074579013188
H         3.09761855388912    4.41720239344264    5.14725556049082
H         3.50821905451633    3.72994728132169    9.10434422056866
H         4.53127866992833    2.55703868430105    8.24447950237992
H         3.09483365169832    2.01351474957768    9.14915019511966
H         4.18607299265928    1.75538604003334    5.83012671321374
H         2.62358263815832    1.76279730984390    4.97325109288407
H         2.84492545028289    0.70836794761868    6.37319053268412
H         1.40583463738237    5.17310156687743    9.95704889588584
H         1.20709802698872    6.88838100206919    9.51861107194550
H         2.32950170904228    5.86041375546054    8.60927296431668
H        -0.00009492086352    7.78878810505130    7.50016214318433
H        -0.87874883493799    6.86169977364578    6.26004822100352
H        -2.43938155707177   -0.06523743086156    8.60172016214024
H        -1.32963058621199   -1.34693772879149    9.02991175187388
H        -1.45116986788469   -0.82778091620733    7.36460729154158
H        -0.87410968328979    0.39450589414076   11.06404155329907
H         0.00061432979574    1.90862733258795   11.00409643502760
P        -2.45646863399085    3.01236108584759    7.02848083579831
C        -1.37358944009784    5.88266826719401    9.13020803007719
C         1.45511625355659   -0.47620244723793    8.39188878330249
H         0.87411419220297    0.39379128124017   11.06395593860175
H         0.87896031239866    6.86180134806091    6.26025446425894
C        -3.34526566463842    4.41290367846313    6.20845604273422
C        -3.50849213422684    2.80611118428861    8.52804764894007
C        -3.10481305403235    1.67435651082574    5.94839396937252
H        -1.40635055850610    5.17289568340824    9.95666628569405
H        -1.20698414796809    6.88821654863936    9.51884890912248
H        -2.32948745892480    5.86093850322743    8.60894126131434
H         2.43937723637576   -0.06548440099230    8.60145886563470
H         1.32951314528905   -1.34710829464244    9.02955495311203
H         1.45101102202689   -0.82776706145149    7.36430833207513
H        -4.42084135270132    4.27960953726199    6.32644675875214
H        -3.05352396394874    5.37359359499061    6.63054191475959
H        -3.09756203357988    4.41711418004990    5.14708810970658
H        -3.50855071016824    3.73025866250891    9.10417551298307
H        -4.53130090761795    2.55683269432860    8.24462327799685
H        -3.09474809601053    2.01390631567206    9.14951869559183
H        -4.18608140275116    1.75517674905144    5.83013085841815
H        -2.62355184143254    1.76256015755681    4.97331106361312
H        -2.84493383137828    0.70821131809769    6.37332789974781

