74
CSD_code = FEVTUV | q = 0 | S = 0 | Stoichiometry = C36H30Br2MoN2OP2 | MND = 7
Mo       -0.93161163912075   10.92121800507286    5.01494742434169
Br       -1.55974713623343   13.48497326191627    5.54838994210387
Br       -1.04843268715453    8.26097640112214    5.60226011711702
P        -0.10477101447624   12.26813698858896    3.17925276770657
P         0.08165648687555    9.59237447743908    3.31528570104372
C        -2.63024641091604   10.63380752923247    4.12743891146015
O        -3.65622359282193   10.39744291915964    3.65998128325313
C         0.66621874617349   10.92837794560780    2.15387247486681
N         0.72972182707365   11.22361618735675    6.14559364129922
C         1.97926902544107   11.31369538727703    5.67409960984648
C         3.06752480106563   11.67892781170735    6.42308514932807
C         2.88543448518073   11.97126047062529    7.77662621860720
C         1.62018863112739   11.83581671963286    8.29973389865700
C         0.55870171018575   11.44865860511872    7.47565311197821
N        -1.67260682900164   10.87210536201197    6.99824214019588
C        -0.78885134733589   11.22480589651386    7.95253738303727
C        -1.18189847304929   11.31796675011745    9.29362206306318
C        -2.48389207862054   11.03848635710554    9.64068727185406
C        -3.37761389612565   10.65575473505182    8.64357748571317
C        -2.92402385606688   10.59027070129762    7.34366856172388
C         1.15075942561651   13.59581703389537    3.28459847835053
C         2.52381360325340   13.37264769421258    3.24271778048684
C         3.40843229948254   14.42712316810943    3.38246293079004
C         2.93745519291293   15.71494505495063    3.56908735409314
C         1.57247500312220   15.94800784725185    3.60052920657951
C         0.68482102214530   14.89930661291792    3.45695658940766
C        -1.21988561600806   13.04872327515609    1.96853033704140
C        -2.57878983455205   13.21882534355319    2.19029207716547
C        -3.37355310265847   13.77696677481238    1.20270620733972
C        -2.81695171140293   14.16569629509950   -0.00312577460653
C        -1.45686416572293   14.00650125776053   -0.22427299866704
C        -0.65965387321752   13.45194091054450    0.75671170752497
C         1.57759017053113    8.55288483736712    3.41128856407086
C         2.21446782619982    8.24671142687690    4.60566120828389
C         3.38500821623620    7.50743693442807    4.59298353672604
C         3.92191545332485    7.07397049580047    3.39314340244657
C         3.28879135860676    7.37918771202543    2.19739910484352
C         2.12354590383787    8.11994341021113    2.20416953881099
C        -0.99955209088700    8.59493737364568    2.25565403323049
C        -1.00410372749575    7.20551559691509    2.32720023603337
C        -1.90684073533840    6.48260339174689    1.56915200673355
C        -2.80875723125769    7.13717062355147    0.74663900405415
C        -2.81474150299883    8.52172705179392    0.68359865254053
C        -1.91682913502643    9.25089832885168    1.43893313082376
H         2.09188366386305   11.06494489592534    4.62513616849903
H         4.04130706819826   11.74022824236492    5.96424160772192
H         3.71332076464086   12.28135849233756    8.39375788588030
H         1.44229723929696   12.03576911609606    9.34347415235819
H        -0.46905725947473   11.60816988494511   10.04746960544759
H        -2.80473955674355   11.11160730035167   10.66833848335701
H        -4.40402074028239   10.42116244607497    8.87138650573571
H        -3.58912104830851   10.30152477542892    6.53853750797713
H         1.75853044272472   10.97698466665765    2.10994795994675
H         0.27379564247932   10.86765622507538    1.13450670520668
H         2.92730208358402   12.38153674650561    3.08814163427562
H         4.47181311758824   14.23805934352608    3.34528077683163
H         3.63226510850206   16.53340815671129    3.68521156067058
H         1.19511549786192   16.94999467576211    3.73889572428668
H        -0.37881079910294   15.08897825066037    3.48180835989412
H        -3.01686369031693   12.93105894775599    3.13479145258153
H        -4.43034962783331   13.90807386056792    1.38022311657961
H        -3.43951730156705   14.59871982571190   -0.77207595913710
H        -1.01959795933673   14.31689605499000   -1.16224121358581
H         0.40561970205082   13.33493359174239    0.59594567812684
H         1.79177669806077    8.56716581221159    5.54809995911043
H         3.87540200903831    7.26769631670068    5.52479539357027
H         4.83346672560009    6.49482641617188    3.38661989876271
H         3.70498506353587    7.03751342854599    1.26077186022179
H         1.61753179695912    8.35962097442026    1.27638364865341
H        -0.31232011872561    6.69805728734812    2.98568937003167
H        -1.91114559962580    5.40439271508922    1.62905761762200
H        -3.51600635765932    6.56902997573671    0.16064077493944
H        -3.52656201416272    9.03498931832779    0.05373745398401
H        -1.93805005170378   10.33568129284378    1.40845483915527

