42
CSD_code = FEVWEL | q = 0 | S = 0 | Stoichiometry = C19H19Cl2NTi | MND = 8
Ti        4.15151585886344    3.54269328771884    2.94435561490368
Cl        2.14303110672353    2.93541015587487    2.39335954737043
Cl        4.92575457402757    1.58121669244988    3.47120138030707
N         3.82120053273725    4.37043058585472    4.50954652908341
C         5.22706033301413    5.51081885966097    2.67185684426279
C         6.17259638766441    4.49073885210569    2.41716172454010
H         7.09191229963816    4.33847271898515    2.97385775287898
C         5.77170830342206    3.75084878855066    1.28629304822868
H         6.34526648987021    2.96739522992869    0.80570079518716
C         4.58188004385952    4.34663138059918    0.77294277027881
C         3.78471272388571    4.06450141773491   -0.35277951563410
H         4.05218046643095    3.25281500813606   -1.01734121712982
C         2.68096406205208    4.84191493738133   -0.59356077840958
H         2.05852511231623    4.63862588213793   -1.45217046273875
C         2.33745910892821    5.91138759139654    0.25357656746087
H         1.46097505109154    6.49739992103725    0.01985836265888
C         3.09114391984840    6.22387786384221    1.35626096406647
H         2.83289337335201    7.06876095018191    1.98206065209525
C         4.23373769250475    5.44917276761724    1.64100851646200
C         5.14715158673959    6.33362141943914    3.92326229832127
H         5.01312454166982    7.39679118031020    3.70697211837241
H         6.06622261124421    6.20515467189739    4.50232457594588
C         3.94321874431154    5.79879699285965    4.73058777753761
H         4.07243190245024    6.01391561354866    5.80093629708445
H         3.02545061631218    6.30423927024019    4.38503475323631
C         3.18851055547072    3.63930479830628    5.59688202533455
H         3.14753276486594    2.57836768704607    5.28537147393475
C         1.74281360431583    4.10851225629414    5.80953077656142
H         1.70934440098879    5.11663214080679    6.21676920161211
H         1.22146944467913    3.43283155849956    6.48222670048785
H         1.23568389997226    4.09693361498151    4.84346734676325
C         4.07883428730224    3.71591659478105    6.82766952423638
C         5.43733659582092    3.46468640324001    6.64583666281089
H         5.79314142052866    3.21384278705140    5.64948259233860
C         6.31351674840148    3.52592730285264    7.71250937481786
H         7.36365424570659    3.32460196212445    7.55986606992250
C         5.84453840408213    3.83885347306105    8.97897539746240
H         6.52683331928575    3.88533682375353    9.81458907705109
C         4.49716595922557    4.08548206468982    9.16746675579693
H         4.12408392696494    4.32593076398866   10.15232855513643
C         3.61651149835391    4.02578318590167    8.09842472324794
H         2.56911148107687    4.21912454314409    8.26899682611152

