79
CSD_code = FEVXUA | q = 1 | S = 0 | Stoichiometry = C40H32MnN2O4(1+) | MND = 6
Mn        1.38410898264014    2.06797377207988    4.94241653549364
O         0.32808539919857    1.09034150421541    6.07234409340355
O         2.07673373081931    2.92701184129184    6.44545100126807
O         2.48549232267770    3.10875464146017    3.84364665337924
O         0.74220679218118    1.26161011632500    3.42512300990253
N         2.82351140204980    0.67651512853142    5.08777410602695
N        -0.06065981498261    3.45220293684670    4.79040356791612
C         2.52416438409196   -0.62432475614129    5.05744340999265
H         1.49092579554831   -0.87467025313659    4.85599380196100
C         3.46268913729693   -1.61817910051044    5.26716334720814
H         3.16374962800417   -2.65355859437020    5.23435444347053
C         4.77852480517492   -1.25913339811972    5.51611549761778
H         5.53466903924318   -2.00897502830713    5.68813172777454
C         5.09603552991720    0.09029633652883    5.53144415222296
H         6.10578087307387    0.42341831302374    5.70965385349175
C         4.09435071433945    1.01849271941671    5.31168571729621
H         4.31241482362100    2.07828143856447    5.30535833016153
C        -1.30820766605807    3.10227714378440    4.46806382943998
H        -1.51075140458282    2.04040219095848    4.41120803303814
C        -2.30710378885565    4.02599922738389    4.21894239723557
H        -3.29696414817989    3.68727581963545    3.95854157156724
C        -2.01233135349138    5.37758878042605    4.31127323905892
H        -2.76737017050099    6.12387738307765    4.11987308018959
C        -0.72316014689077    5.74310019110695    4.66707242325413
H        -0.44477637389893    6.77990600016714    4.76618603135111
C         0.21516960203652    4.75353765086821    4.89824647635512
H         1.22701557158929    5.00499662047155    5.18749899817823
C         0.52817803657431    0.71455724787283    7.28033898302191
C        -0.27035819039449   -0.43119311141219    7.76125356719973
C        -1.03230731428669   -1.13250882614845    6.82145312753812
H        -1.01709624872036   -0.80292568027104    5.79183876359774
C        -1.79274199040701   -2.22170354398239    7.19500256065375
H        -2.37369988327300   -2.75288845779764    6.45623596690733
C        -1.80938834235322   -2.63183665005457    8.51878765551982
H        -2.40242282895681   -3.48312762460957    8.81530495876796
C        -1.06312469814302   -1.94262117804305    9.46131963922074
H        -1.07892963514853   -2.25660179460754   10.49385153612547
C        -0.29893427206951   -0.85176017498773    9.09109582258554
H         0.26236682011108   -0.32780538935476    9.84765324259356
C         1.43808587655943    1.39377481301811    8.10589177931343
H         1.53381247901601    1.10175389627801    9.13466989245166
C         2.16982338209017    2.50198151649334    7.64802970719453
C         3.07105088764425    3.25221005132088    8.54752271984577
C         2.97284057701616    3.21241501176607    9.93804642569970
H         2.19757402880103    2.63502834151449   10.41628766684937
C         3.85034609461157    3.94158230462575   10.71880391266717
H         3.76319878857168    3.90733100744810   11.79406327422661
C         4.83469964692083    4.71931848635381   10.13016965206327
H         5.51748924056614    5.28430902843670   10.74584053109248
C         4.93432686683679    4.77538234213451    8.74898052956547
H         5.69537871500278    5.38493571652345    8.28561304439337
C         4.05788500671942    4.05178145995900    7.96571486551201
H         4.12433674532086    4.09032490638416    6.88773969603463
C         2.32670553002747    3.44630156958681    2.62149531142007
C         3.20313349762687    4.51867493234056    2.10706372273778
C         3.78830504942859    5.38718267789798    3.03139973430611
H         3.57785676586574    5.24479214362850    4.08180909646261
C         4.61365922775393    6.41156479947344    2.61318423272624
H         5.05425134480173    7.07985172905725    3.33756425449341
C         4.87638932091711    6.57993995379212    1.26280178136978
H         5.52177722636323    7.37914588584370    0.93232586958755
C         4.31372155912871    5.71488253284424    0.33780867420931
H         4.52794082642495    5.83709421680801   -0.71298048486727
C         3.48254802038512    4.69058952542621    0.75160627670574
H         3.07541503224155    4.01208227726213    0.01863846930724
C         1.37993567970042    2.81883981378016    1.79412552879059
H         1.31574631493588    3.10125512914381    0.75913771766299
C         0.60150260811940    1.74449586011458    2.24840262527422
C        -0.36217671086869    1.07704999785144    1.35090516587796
C        -0.68612518011189   -0.26018984481760    1.58343150207978
H        -0.20259020463813   -0.77904242775576    2.39846411361646
C        -1.59452579924984   -0.91291427487929    0.77348859368896
H        -1.83059421380761   -1.95047841981585    0.95513225608236
C        -2.20224159513660   -0.23537290539846   -0.27148463412227
H        -2.91219106005030   -0.74376920511711   -0.90541011099521
C        -1.90114958425302    1.09843142075146   -0.49813056358184
H        -2.38289182990078    1.62989291765197   -1.30460065482703
C        -0.98636988007518    1.75431644672273    0.30420049729181
H        -0.77642540025376    2.79905092342002    0.13350217580909

