68
CSD_code = FEWBOZ | q = 0 | S = 0 | Stoichiometry = C30H33ClO2PRh | MND = 6
Rh       12.58483615202351    3.81220514829252    2.14260035893805
P        10.69145044486839    4.39590138599463    0.99597466917503
Cl       13.42088480003715    5.84457160602170    1.58791686341490
O        11.11207487235953    5.04138841325461    4.22461353788915
O         9.21813493745408    6.34045060534912    4.63656544084117
C         9.24091039850639    3.86444377031567    1.96456605703913
C         8.45668058353371    2.77567052911707    1.59814750574223
H         8.62773974940803    2.28818574900166    0.64898762076330
C         7.45813313576119    2.30870003014872    2.43481003566174
H         6.85268154309501    1.46791767388188    2.12903993939826
C         7.24457294478951    2.91294497624164    3.66084951339284
H         6.46889878461184    2.54972188580843    4.31826564471275
C         8.04021194664538    3.97651229343243    4.05316779413646
H         7.89589926806299    4.44939109219269    5.01119092815694
C         9.03954109185158    4.45227919607308    3.21984434251753
C         9.92435346646773    5.58382936095608    3.69197680745206
H        10.20184296930091    6.24893405968223    2.84346515357886
C        11.97917382530617    6.06597573281318    4.69808054678239
H        12.30799177088640    6.68704317909817    3.85279605710962
H        12.84165186226837    5.55045710654343    5.12123651317179
C        11.27422211236885    6.93155479121933    5.73987996843832
H        11.03489906704980    6.32771721919279    6.61693895706590
H        11.91073029716926    7.76432362211870    6.03518066664232
C         9.97857284305851    7.43436997670917    5.10916869895603
H         9.34184040905506    7.95109328463715    5.82953519128103
H        10.20771034614483    8.11268026455955    4.27176177716780
C        10.19077847671712    6.04667031368559    0.37380551101313
C         8.95236379485284    6.62277453419273    0.63698910869021
H         8.24434780916425    6.12294624967059    1.28464994941325
C         8.62629380289309    7.84529581297275    0.07657492166665
H         7.66437089853721    8.28949689291130    0.28901404501276
C         9.52557190134572    8.49708371257495   -0.75073119119674
H         9.26745266814501    9.45385476440014   -1.18069813897038
C        10.75385540462316    7.91893644162083   -1.02675152571238
H        11.45665840484561    8.42224334863444   -1.67402937371202
C        11.08406332507624    6.69626242732141   -0.47293370843145
H        12.04391406432828    6.24410142135803   -0.67660887861477
C        10.52942970339465    3.58306260897390   -0.63276949595270
C         9.35315633091869    3.63032808623374   -1.37463709470139
H         8.47779030949707    4.11635488150294   -0.96572323840271
C         9.31058640871658    3.06419004552051   -2.63519289261053
H         8.39362482122110    3.09218258524544   -3.20584636802228
C        10.44260196993748    2.47102631742658   -3.17278105100477
H        10.40330506793396    2.03181187080183   -4.15877142354838
C        11.62578367373213    2.45636789297990   -2.45344466857244
H        12.51373927105918    2.01447210417237   -2.88167862023083
C        11.66893937140592    3.01436614169896   -1.18823853834735
H        12.59068824756437    3.03207649015038   -0.61458745774695
C        11.85534244296801    2.13855464397172    3.27469055189379
H        10.84882418617324    2.38012451589442    3.60787398661190
C        12.02019672523348    1.75646970325071    1.94729844411494
H        11.12016842399631    1.64649517475329    1.34056549453683
C        13.17217551799866    0.90932497403445    1.45194843465418
H        13.12921975546259    0.87823537299739    0.36105992840635
H        13.03356075184586   -0.11913117208396    1.80501802153714
C        14.55191925720972    1.43575612013646    1.89200163049367
H        14.87862934389087    0.92512512891423    2.79982304364745
H        15.28218233253699    1.20735391421653    1.11303556079061
C        14.55897890440651    2.92754247551537    2.14986367062363
H        15.15413609378066    3.51447924195402    1.44991196163161
C        14.30079209846306    3.48244731416500    3.39451600320448
H        14.74349249839930    4.45482534651433    3.61215282413945
C        13.93887267614608    2.68276777662850    4.62331777582637
H        14.82841459004486    2.15009857972695    4.98023757667700
H        13.64206180320518    3.37827862227612    5.41064458908235
C        12.78776702310959    1.69048213153633    4.37862096757706
H        12.21378627837939    1.58359700626392    5.30068689944567
H        13.18392394873481    0.70430523262891    4.12716217565862

