59
CSD_code = FEWBIU | q = 0 | S = 0 | Stoichiometry = C23H26BrCl2FeN5O | MND = 6
C         0.97655134757972   13.93874976772775    4.73761414385391
H         0.73715329505183   14.99473989551543    4.91357253096887
H         1.01898646362215   13.77451212789261    3.65573305148895
C         2.32264597858780   13.58735610424835    5.30162120360560
C         3.32188820964034   14.51913597308611    5.50217974278241
H         3.13647832162277   15.55936776618005    5.28173776697570
C         4.55316666960531   14.10067064483247    5.98761570044285
H         5.34524178052334   14.81064474451576    6.16362425168103
C         4.73244557297735   12.74691894388719    6.23114123524240
H         5.67220080844566   12.36424302302986    6.59307003564580
C         3.68141867511173   11.88084624126626    6.01126497557694
H         3.78026658723681   10.82070971907904    6.18140867431689
C        -1.07239810148138   12.70921453333364    4.31935384592129
H        -1.39666427408256   13.57980387681959    3.73315983682223
H        -1.93126170189641   12.29879618124177    4.85572407335310
C        -0.53665021897192   11.62846714609052    3.42159681780287
C        -1.14668761168442   11.30947118539602    2.22453214236248
H        -2.05447878809337   11.81650109601525    1.93896870284613
C        -0.58836520377293   10.32777345720780    1.41447722339221
H        -1.06828285972667   10.02171096652876    0.49924674396621
C         0.63374372269312    9.79702097243405    1.78666278725956
H         1.16333114155517    9.09526547419068    1.16322777590822
C         1.18770918319604   10.19546748498520    2.99248416996079
C        -0.59509272568979   13.57816063608772    6.54608449220002
H        -1.43441746238447   12.93193510345844    6.82235040305704
H        -0.94706665093133   14.61227458218044    6.43703209815941
C         0.41862811737526   13.46221974810103    7.64703532790469
C         0.66016312393678   14.50732179304749    8.51649380926837
H         0.14078206009401   15.44499986881546    8.39858951425162
C         1.57575318504396   14.31520523803306    9.54456194181987
H         1.79113107904513   15.11004739818455   10.24205250885952
C         2.19774582765430   13.09638761789335    9.66581332602243
H         2.90712697494698   12.90016357874802   10.45038382165475
C         1.90274599746807   12.07556448487802    8.74591462946176
C         3.42858141299462   10.39694792583254    9.70586702202410
C         3.73483515919202    8.90342645000375    9.62355574584394
C         2.44657833377973    8.07554870590214    9.63338785314660
H         2.69761830721766    7.02519680011811    9.76107555430873
H         1.89897870143221    8.17262581507988    8.70099700933373
H         1.80219485113241    8.37523375533933   10.45738405042298
C         4.52679736011094    8.64159707911266    8.33586904510848
H         5.38130376559158    9.31217558739316    8.26949902680128
H         3.89729050922041    8.76853761921803    7.46011298957870
H         4.89364314785300    7.61827890481119    8.34050356241957
C         4.59423712919051    8.53402598761502   10.83641842547665
H         4.04535043789188    8.70993917075902   11.75850345870458
H         5.49585285501723    9.14037907280410   10.86001997270819
H         4.87562338129659    7.48525499336033   10.79041820110864
N        -0.04354404438151   13.05350532782979    5.30178555316216
N         2.48450579235593   12.28162948786864    5.57485233026508
N         0.58359667129885   11.01285606250774    3.85789812439283
N         1.03228754155792   12.27522696867215    7.74379737672034
N         2.45487942270461   10.82725241937984    8.83179792716821
O         4.00738417768489   11.14021733622045   10.46849261913420
Cl       -1.10301640943254   10.48613794635526    6.29485772334506
Cl        1.71472749551115    9.36389702737884    6.25185490306965
Fe        0.86296262671864   11.33251533776802    5.76649380273674
Br        2.97065084121288    9.69645345286971    3.33812597649636
H         2.12224200855125   10.16697339087102    8.11600244168138

