62
CSD_code = FEWDEQ | q = 0 | S = 0 | Stoichiometry = C19H38N2NiSi2 | MND = 4
Ni        2.61338555825563    2.76028163769776   12.85474886237924
Si        1.85709089299631    3.69490172981489    9.83996915047441
Si        3.42337206840424    0.74703129832019   10.45441860568671
N         2.56777947884821    3.31923552831082   14.96635313008868
N         4.54421563290017    3.64782058940809   12.90001649666462
C         0.28356180043964    3.47177308286092    8.77400388919908
C         3.17697762893676    4.25653231478585    8.57191810815161
C         1.47588350921728    5.10764290510957   11.09152895085193
C         2.63163439058758   -0.50118832257058    9.23897569372310
C         5.08202250793914    1.20816626666780    9.60649359607366
C         3.73972310658739   -0.16931810370591   12.11497448167558
C         3.85616507886367    3.96496295145467   15.25698943625004
C         4.43974613999065    4.60814824873662   14.00347140160527
C         1.49115899478986    4.29584046291476   15.15246743288714
C         2.36688462359641    2.21819044726636   15.90830465547860
C         4.98880361601299    4.36916535864671   11.71188209945976
C         5.55426677330039    2.63772201247737   13.21221649160821
C         2.25906887444032    2.17470910450972   10.91110025641145
C         0.94799805016185    1.58235736448528   11.37334683063565
C         0.93299335740669    1.90724218349783   12.72744739681107
C        -0.17593725540644    1.53245221804140   13.47495368635162
C        -1.21129407046069    0.84005040719246   12.85136294624915
C        -1.16114672971406    0.52165025221678   11.50667729716916
C        -0.06747336194378    0.89790161740105   10.73893577629306
H         5.83880351016033    1.58214737238493   10.28702125399135
H         5.49524322103600    0.32461815540182    9.13081326314022
H         4.93537706988980    1.95321716159536    8.83377647191132
H         4.77772503191789   -0.44453738174334   12.27676445501267
H         3.41904321133539    0.48244611557992   12.93855272011669
H         3.14416022544693   -1.07438116816464   12.17798119444050
H         2.34006272199193   -0.01693178850594    8.31255943364582
H         3.32955705397792   -1.29465629127002    8.98796917878779
H         1.74855010438734   -0.96296635323565    9.66585096167466
H         3.31728394003993    3.49736774984735    7.81055125329653
H         2.83227993417738    5.15554025384036    8.07086201942527
H         4.14460152195140    4.47686169115256    9.00382189262810
H         0.04211945005837    4.38834567971456    8.24319816147618
H         0.41654953130552    2.69142985475894    8.03199704049913
H        -0.57236956697349    3.20573109902207    9.38452432541156
H         2.07259762568224    6.00231930675133   10.93762527767877
H         0.43127046416668    5.39946267792847   11.05223273360592
H         1.66720922501507    4.72606674296223   12.10402206162470
H         3.79337542065691    5.42870837989114   13.67965624146541
H         5.43006544696722    5.03404010985178   14.24435071568287
H         4.55439874938960    3.21449175882829   15.63392056046314
H         3.74439614092510    4.72718248163427   16.04312698961972
H         5.06356820048818    3.67600245188430   10.87950015974616
H         4.26964904518160    5.14208769156965   11.45192475205063
H         5.96976751615101    4.83967452273674   11.88058586644630
H         5.24230891000522    2.01023534037205   14.04397406169697
H         5.69475481153143    1.99353371589742   12.34878459027588
H         6.51714306775056    3.10813425921940   13.46588562668406
H         1.40093293961468    1.75355720684497   15.73287541317474
H         3.13389527032541    1.45750245056640   15.76686935204443
H         2.40607020009447    2.57431006392736   16.94818891653933
H         1.66507576386487    5.17369043369668   14.53246402443729
H         0.53920158469329    3.85843828848656   14.86055706211120
H         1.43286156067396    4.61752712031634   16.20323077498244
H        -0.02442376047148    0.66577528737163    9.68557758940841
H        -1.98253086641990   -0.01803805334528   11.05430002151227
H        -2.07286079147170    0.54835124599235   13.43793755162463
H        -0.28989415165903    1.75244281069832   14.53070935948549

