79
CSD_code = FEWFAR | q = 1 | S = 0 | Stoichiometry = C30H44NNiOP2(1+) | MND = 4
Ni        6.45457186562468   12.79477562238756   13.98720340093027
P         7.88101348706085   12.16220691312379   12.45968378328984
P         5.06427558881641   13.23984153240510   15.61133763538866
N         6.79317252642106   11.16593983982048   14.84567193573186
C         6.22274619312624   10.86547056769796   16.06921869382735
C         7.62135965855656   10.21264450576295   14.28138386146445
C         9.01945759133572    9.58302458626772   12.36815798175573
H         9.44128562332071    9.83071963057318   11.40520412033176
C         5.86167310065107    9.50607917194676   18.01183917347420
H         6.04331326347566    8.59429159326248   18.55998226569410
C         7.33029310409359    8.57066865885447   16.21309944067286
C         7.89393914057477    8.96467923744965   14.86484400916818
C         6.45497747249371    9.67176964104380   16.77192352989789
C         9.26811523244538    8.34657490397427   12.93617753089787
C         5.04172025661242   10.46040776490095   18.60801774609515
C         8.22031253038454   10.49655356572129   13.04069515533845
C         8.70393923299641    8.07501963882325   14.17959151996345
H         8.91031550908679    7.11136251832732   14.61955318918526
C         4.45136193040814   10.21242392055250   19.96036757243902
H         3.82655930194480   11.04454212550077   20.27329798320856
H         5.24013120276952   10.07433489396923   20.69841899090501
H         3.84585106958337    9.30735091483061   19.95078784119339
C         6.48143912040793    7.29709595915206   16.05085262990842
H         7.08548440547016    6.47251704856449   15.68457139564761
H         5.67410855845846    7.47327710641208   15.34227050113893
H         6.04596027264988    7.00015135588981   17.00034925755790
C         4.79374247947813   11.62833566733011   17.90997633061316
H         4.16166013005084   12.39184277026561   18.33902424470413
C         8.49846636423482    8.31637412986899   17.18248699792466
H         9.07832586561523    9.22777810862209   17.31677182465047
H         9.15768131937925    7.54389804762387   16.79761079922754
H         8.13373607522901    7.99559037683130   18.15359670039459
O         5.92070098779990   15.27142273757554   12.67958981550880
C        10.12657074849317    7.32779124024664   12.25510289379427
H         9.61080957894095    6.37103217471057   12.19786352660224
H        11.04770884112541    7.17375794934051   12.81662724139537
H        10.38628708894689    7.64456491355932   11.24855638779631
C         5.36754092458669   11.81324442019480   16.66000376484616
C         3.42490492866910   11.81650561987722   13.97912284332010
H         2.51764713205567   11.72932634535564   13.38557214922308
H         3.54300120395247   10.90499064504787   14.56391916749567
H         4.28407185210130   11.89919229597521   13.29095554406608
C         9.59234137402184   13.25352548961144   14.26507358700716
H        10.36716478302217   13.97105341650690   14.52551225452144
H         9.86904037695427   12.28323135522426   14.67574490709482
H         8.64856115591073   13.57328730719786   14.74032668639482
C         9.42242176603360   13.15917462036164   12.74788889932113
H         9.22569355080896   14.16084519625558   12.34449576274511
C         3.35888767214588   13.03440482598449   14.90216336766444
H         3.16062248235125   13.93143491614051   14.30149409056860
C         7.56294664241721   12.05444034523876   10.64333843242635
H         8.37531495821951   11.44901713451677   10.22370678953370
C         2.28143874371649   12.87950457048537   15.96705595644636
H         2.46456212427978   11.99389191862077   16.57210113885450
H         1.31062487508999   12.76693407343222   15.48845271574902
H         2.23563121381444   13.74967645812806   16.61854510672301
C         5.08967896920472   14.73417882283800   16.69704505593357
H         4.44112920320090   14.50469418946239   17.55104424758735
C         7.54684010937495   13.42116252542073    9.96980711813672
H         6.76466564612174   14.05274575461810   10.38661123555297
H         7.34588618484776   13.30064478948545    8.90720871456277
H         8.50186328974791   13.93136633141428   10.07409389819937
C         4.57514523518324   15.98144811975695   15.98883713036803
H         5.19182638903020   16.22233922258294   15.12518765631635
H         4.61319679037925   16.82853986191905   16.67075066636318
H         3.54487021545055   15.86139431139428   15.66130589461756
C         6.23734995077123   11.31758354383491   10.46351077388189
H         6.03131591240593   11.15426783295758    9.40838315655118
H         5.41932211168002   11.90466915271513   10.88386211143541
H         6.26262284386032   10.34953762004752   10.96360042723480
C        10.65353348665415   12.56600194022036   12.07603480355661
H        10.86146999911095   11.57150532100923   12.46544092902393
H        11.51767810392020   13.19571935012142   12.27824169343912
H        10.52840430968420   12.50396551305742   10.99704133160504
C         6.52601489591546   14.91140389935238   17.18471424648938
H         6.58901500244637   15.73136437702179   17.89615741071729
H         7.18453045224008   15.13741018220447   16.34464518470950
H         6.88363905124237   14.00432535631815   17.67172679137085
C         6.13971736968074   14.28083969439640   13.20496845102932

