90
CSD_code = FEWJUO | q = 1 | S = 0 | Stoichiometry = C46H37CuN3OP2(1+) | MND = 4
C        18.40862434398375   10.05982065532389    6.75682957804624
H        19.12910533304962    9.25293420809331    6.84838967091476
H        18.04715478380558   10.34860614563113    7.74118463657539
H        18.90164829108684   10.92556417558459    6.31557302970723
C        17.27747515400331    9.63196455567621    5.89285387443069
C        16.11409810616606   10.39960064601671    5.75115410616220
H        15.99328946970678   11.33308439500789    6.27480287178456
C        15.13663761163741    9.91676658202356    4.90766484165517
H        14.21506933112219   10.45818076553597    4.73771298404908
C        16.41240140532740    8.08696148881790    4.46257048827625
C        16.54558876872956    6.78905810837350    3.79728273175265
C        17.74233548865791    6.07735130874758    3.82120823966186
H        18.59612571062552    6.50734701995983    4.31795189082803
C        17.78731732414731    4.83905495212273    3.20602121828237
H        18.69898774855621    4.26146142988232    3.20251258927382
C        16.63874937078804    4.34920365121449    2.59644003786300
H        16.63307010132451    3.38643784228730    2.11146740190687
C        15.49012173211362    5.12329132601997    2.62272215227077
H        14.56898938992193    4.78556389904679    2.16655414038350
C        14.48307808684181    6.94716564194432    6.91085938517485
C        14.49221962023713    8.03744903224246    7.77551517099553
H        13.65051855490979    8.71683330493129    7.79116487012683
C        15.57107016060050    8.24136776420266    8.61677007897012
H        15.56745417757235    9.08076906990892    9.29654027382213
C        16.65337766406035    7.37712025659097    8.58652144466319
H        17.49461243860159    7.54248454526993    9.24200716356150
C        16.65830348585964    6.30062961159191    7.71320085061349
H        17.50406763403118    5.63039685686075    7.68480700283202
C        15.58380589660782    6.09077310380896    6.87133583739949
H        15.58479918623988    5.25902797594664    6.17706429817928
C        11.79773897469965    7.70848515020079    6.23743905270169
C        11.40037471811800    8.83819125828397    5.53066240961968
H        11.96869783315668    9.13986039460802    4.65669857822679
C        10.28336685256289    9.54947150689493    5.92808781715562
H         9.97323063995510   10.42191285998884    5.37311588486767
C         9.56031218087829    9.13371751676025    7.03394754251540
H         8.68401932499745    9.68305305380248    7.34207505425485
C         9.95790299504760    8.01247936213680    7.74587887615803
H         9.39375990099771    7.69300043345064    8.60915264220851
C        11.07245818464114    7.29599969930972    7.35138065777317
H        11.38297919125596    6.41831597763704    7.90183554125252
C        12.59349979829742    5.07133177838303    5.83239242888060
C        11.70052359240942    4.71017055570837    4.81875620703127
C        11.09854401561528    3.46547812840406    4.80761391032376
H        10.41677795150608    3.20055009048247    4.01330698222170
C        11.39232555128848    2.57319128051651    5.82808818412244
H        10.92578232504978    1.60041546234414    5.83392027099957
C        12.27920756897259    2.92046678150046    6.83442751559717
H        12.49749102029164    2.21693374711640    7.62317977238840
C        12.88776497871651    4.16513732381009    6.84088931901651
H        13.57699517793658    4.43410498686101    7.62851872765904
C        10.37481487412210    6.37045892337760    3.72372128231555
C         9.22643443920947    6.16912612680221    4.46674561006418
H         9.17537042712327    5.37130822673015    5.19258638770814
C         8.15076500993233    7.02343340846644    4.27775729517365
H         7.25158381756831    6.87223969627597    4.85449124421604
C         8.22353278614068    8.06611238528729    3.37029597536314
H         7.38029997097354    8.72614828463832    3.24029919495564
C         9.37929273014845    8.27342632293779    2.63466619018804
H         9.44645927273802    9.09838377737141    1.94081663449200
C        10.45702122506862    7.41749446391328    2.79619183328819
C        12.13715966038328    6.24252033204763    0.80786839638143
C        11.08403779238487    5.37023414168910    0.56446790355904
H        10.16061276941005    5.46380663107580    1.11885050619067
C        11.22155664313733    4.38276829421609   -0.39653045672289
H        10.40253681093452    3.70571544822191   -0.58907589935376
C        12.40015268757895    4.26340084248492   -1.11418184688913
H        12.49874198692292    3.49315388165356   -1.86381127349400
C        13.45241978662519    5.13418347378799   -0.87357752702474
H        14.37012960016486    5.04340803861504   -1.43544686888561
C        13.32329674999997    6.11794614539665    0.08774620164888
H        14.13549663102717    6.80557053458572    0.29208455220502
C        11.93612743814531    9.04482936964602    0.98455225624111
C        11.10569926516730    9.06868312108185   -0.13230217909556
H        10.53892472891265    8.18742702795608   -0.39988606154569
C        11.01626716606242   10.21937314220161   -0.89351973496117
H        10.37163770278626   10.24216716660725   -1.75928135742537
C        11.75295084905572   11.34288161911246   -0.54933403102949
H        11.67898494206389   12.23779535834701   -1.14818013346454
C        12.58962400492071   11.31757799165911    0.55465975741782
H        13.16976952617449   12.19069512217511    0.81378950214181
C        12.68380781136059   10.16844681486327    1.31874182012953
H        13.34446500421085   10.11964250789255    2.17674044956047
N        15.27642509623418    8.76446394731840    4.25768401164370
N        17.40376688638984    8.48563275037900    5.24140425822599
N        15.44807326784687    6.31166058285622    3.20297305596472
O        11.53111420508520    5.64612629157127    3.81655210688097
P        13.22718560934552    6.76499139881799    5.61770106889813
P        12.10146305346387    7.57692154925215    2.04266164986922
Cu       13.80984862418036    7.51090719186347    3.49492798994491

