67
CSD_code = FEWLIF | q = 0 | S = 0 | Stoichiometry = C24H25F12MoO4P | MND = 6
O        12.53847196228106    3.41997834874664    7.69875683699166
Mo       12.60065495665239    3.35817007616867    9.32588960795063
C        14.14538280514273    4.59498284955827    9.40537644350120
H        14.62105768308256    5.02494320364608    8.52089209917568
C        14.70138682624419    5.10396649744798   10.60878123064543
C        15.70442603879927    6.08091063906436   10.68564425936452
H        16.10938695788661    6.48311052067810    9.76827590608199
C        16.17222613135778    6.52125880312410   11.90600356213391
H        16.94267404044908    7.27626430469111   11.94867099535946
C        15.66079827049683    5.99095897281072   13.07907456899905
H        16.03012891134544    6.33038384675495   14.03433586935767
C        14.67753649793929    5.01051725684648   13.04103593310446
H        14.30525648771504    4.60684599092911   13.96878669645830
C        14.19891066411711    4.57715231536844   11.81943034286365
O        13.22559965271557    3.62949918091406   11.63373930639275
C        12.88085896706056    2.84882216622387   12.76405535314462
H        13.76924750782132    2.36253861249916   13.17918207563787
H        12.17928376671698    2.09415470077194   12.41298691359335
H        12.39835561949489    3.46552696797891   13.52929679496019
P        11.33819073829395    5.45279411801089    9.53826947318248
C        11.67402597690566    6.30588817615244   11.10785629765832
C        12.51102047494120    7.40983186137419   11.21586940251050
H        12.95556056481040    7.84336261239471   10.33339698787616
C        12.78343438143924    7.95473210724393   12.45894643880290
H        13.43724079081059    8.81013532068369   12.53642233968123
C        12.22638454244470    7.40358924179014   13.59965738333641
H        12.44222460341343    7.83077926791559   14.56725571397278
C        11.39531276977843    6.29858331548463   13.49932295285772
H        10.96047480022437    5.86686379760964   14.38936525677446
C        11.12548701576164    5.74726596661190   12.26070415388431
H        10.49883825555720    4.86732334875395   12.17754320005851
C        11.79557366437979    6.63763072948214    8.22543616091303
H        11.51684588210354    6.17757526714135    7.27632447938025
H        12.87087428468490    6.79882457606896    8.22111377750640
H        11.26782302885122    7.58333579509698    8.35098871395360
C         9.51110823612769    5.58052669923435    9.44734415433949
H         9.21705013380282    6.62958632167281    9.49888792208416
H         9.04600191477613    5.03911605090494   10.26620655601350
H         9.17563062286700    5.14535846023150    8.50695442106756
O        11.05676681852337    2.66124967982087   10.51168783375417
C        10.24423503005359    1.61331745135201   10.23897769861474
C         8.84858297714914    1.91534639833905   10.85874193405127
F         8.14729155161258    2.83716347792175   10.18510123879883
F         8.06018543558478    0.84047660265250   10.95955298198505
F         8.99849162299904    2.39671097528573   12.10116097389708
C        10.06169133405925    1.48086073717152    8.70867779980608
F         9.83276131869910    2.67801699755374    8.14006058828871
F        11.14737233264269    0.97725667836493    8.11923178978999
F         9.03438463111271    0.69210415709579    8.36397916034316
C        10.71902828320476    0.26452528817233   10.81149230049936
H        11.77889602734489    0.15462333850240   10.59440570527197
H        10.16474408321199   -0.55856892970168   10.36676053220443
H        10.57262553838904    0.25379166303322   11.89004801567045
O        13.35841070025633    1.57022163870669    9.68692143710209
C        14.52002346067597    0.97592896964764    9.30232638789180
C        15.45120169729968    0.95040708287351   10.53993680662551
F        16.65229120842050    0.40474402809605   10.32207492911229
F        14.91046770025779    0.30445264104706   11.57983770389499
F        15.67788027230297    2.20513072954573   10.96318761949499
C        14.21940799224008   -0.49088118969207    8.88586261225289
F        15.33493443468988   -1.19951402958052    8.64797910430941
F        13.53638079303010   -1.16746391454389    9.81582844524639
F        13.49844894068683   -0.53474320760724    7.76619882117777
C        15.24583871661249    1.65411891449180    8.13268215037315
H        14.50024837837419    1.88545649923308    7.36877677150725
H        16.01413131816190    0.99937178832385    7.72630423764583
H        15.69823097312565    2.58290724582065    8.47542383883100

