64
CSD_code = FEWPUU | q = 0 | S = 0 | Stoichiometry = C22H20F18MoO3 | MND = 4
Mo        3.25058681341078    9.84402863002152    3.64292500865175
O         2.77652192247191   10.42966988072929    5.31742220243513
O         2.71140196743335   11.03522557749429    2.28344742442315
O         4.87325053868069    9.25377947373836    2.85616539648308
F         3.02610754027642    8.20663798616112    6.81433114149528
F         2.08409515949638    9.10557350472673    8.52496110060438
F         3.91775857584894    9.92005762120988    7.74756173912953
F         1.06948250247323   11.62345825504466    8.18195737399207
F         2.85762886278222   12.33297545313180    7.22100682033091
F         0.97726466754212   12.40601687701978    6.18483052845707
F         4.88725750114760   11.82899592014885    3.89838144702679
F         3.04638327081000   12.85308153074135    4.30361014367046
F         4.64849023523921   13.86950744173589    3.27974745350245
F         1.35640588665097   13.34088250664084    2.33483225966247
F         2.91720134836677   14.43886299162629    1.33388441607972
F         1.92367583444505   12.82412472631355    0.33100633809361
F         7.43285106098202    9.51452721200496    2.23737685186691
F         6.46814274405172    8.57894895899330    0.57401069941387
F         7.71905804534791    7.40891987660570    1.87390555258955
F         7.10809808900777    8.33364124437928    4.56614665680252
F         5.02825963311014    8.02575699023587    5.01367736436470
F         6.24455336915023    6.38793574048170    4.30989480087135
C         2.09008831120574    8.46498256656677    3.30633229545057
C         1.11925874974978    7.54297477249201    2.95766380024959
C         1.02477668888977    6.26487123281718    3.54659185016417
C         0.01723352002545    5.40359703953660    3.15154286518215
H        -0.04315450652175    4.42686477965505    3.61074885707531
C        -0.91405694894092    5.76480629530578    2.18771222289209
C        -0.81975294600152    7.03056537988639    1.61278583211371
H        -1.54238474635108    7.32145933426799    0.86331168332391
C         0.16898625057282    7.92004078411109    1.97383550136327
C         2.01166320712075    5.84467976089351    4.59570155521441
H         1.49193426052857    5.51091193071165    5.49213345373591
H         2.66790802600483    6.67382754862631    4.85969520680896
H         2.61467805107480    5.00959826282093    4.23955669308632
C        -1.99290660984025    4.81997461256461    1.75793115181536
H        -2.95674115126216    5.32487029734908    1.73159297714432
H        -2.05893522653425    3.97012445584913    2.43214535022630
H        -1.78666953767845    4.44692286946564    0.75454314160472
C         0.27404402380739    9.27817680493689    1.36141362252173
H        -0.51491205995987    9.44129601150066    0.63226433884876
H         1.24629455581814    9.39592813928862    0.87674108364020
H         0.21726825665031   10.04817644641340    2.13616633898362
C         1.96201853883386   10.26345826761094    6.40670553753157
C         2.74912444261752    9.38227445585189    7.40202586105413
C         1.72171001216285   11.67003080498567    7.01435636303305
C         0.61664483692270    9.61083642481792    6.07642179379244
H         0.11853870339337   10.21141206021421    5.31474418201602
H        -0.00352437557203    9.54958395769615    6.96819497894577
H         0.79309213664556    8.61531594353747    5.67310202923569
C         3.42661627260129   12.18695885875664    2.05237449277686
C         4.00625239927623   12.70833657000235    3.38470897109088
C         2.39907931618297   13.21916959145933    1.51322804297589
C         4.55301279923571   11.97199489231700    1.03409776335440
H         5.21875841735858   11.18738044936969    1.40078623682141
H         5.11606412715551   12.89092700572070    0.88047680479188
H         4.11635676719418   11.64498134930265    0.09099317360591
C         5.56936339861822    8.08547153073220    2.71672155274595
C         6.81951116354824    8.39556991946159    1.85177941436252
C         6.02136927921084    7.68994194766271    4.15131442284397
C         4.77047836626524    6.94690822631590    2.07455057628299
H         3.93417000705106    6.69167071417186    2.72213086998302
H         5.40377907989888    6.07675234677704    1.91851628380081
H         4.37528857431530    7.29596695899342    1.12157810757475

