53
CSD_code = FEWRUU | q = 0 | S = 0 | Stoichiometry = C20H24Cl2N4O2Pt | MND = 4
Pt        0.49449234716107    4.93211812019565    1.64556763539722
Cl        1.10593605123655    3.96834367722178   -0.29757163625753
Cl       -1.69791413439345    4.64374082398910    1.22710272754371
O         3.17683010284668    6.97804471814188    4.14246384832920
O        -2.28630660824216    7.28528439529638    4.56399015009707
N         2.46217104478957    5.35770913980900    2.00509039982747
N         2.64200865163028    6.74012131207543    1.96010541550075
N        -0.05487458609141    6.01422146396309    3.33638673759120
N        -0.65576376272205    7.20125171342990    2.95866158607269
C         3.20737449468246    3.12896215070353    2.36414047437193
C         3.44710156957951    4.59183453860472    2.29064914476544
C         4.82452540849125    5.09703330260067    2.54892293877840
C         2.85520864962564    7.48818466949747    3.08518354594718
C         2.60651251581881    8.94333495391316    2.91531436297330
C         2.61477390141380    9.59079666748323    1.68127246608661
C         2.31360031709810   10.93902552418979    1.60718397219366
C         1.99720684023424   11.65091322342805    2.75355941207894
C         2.00893586062544   11.01812696395415    3.98576848349184
C         2.32019706186089    9.67427877986390    4.06662738858877
C         0.84673322947011    4.45207963240210    4.87607693501286
C         0.28222957344483    5.79091716034748    4.55078409100237
C         0.19530639097668    6.77862466563284    5.65970107972619
C        -1.78086833269108    7.73421141488444    3.56129903865317
C        -2.27160662303661    8.94385432311254    2.85022162875081
C        -1.40139151439420    9.81704416802810    2.20224707991235
C        -1.89763332199351   10.94641962704976    1.57791910035578
C        -3.25879178365268   11.20665878152114    1.58699257346464
C        -4.12602713383836   10.34458344675640    2.23814732486016
C        -3.63451511801127    9.22105743737522    2.87639286885411
H         2.17215651073732    7.15848228777924    1.16471389075246
H        -0.63450640343159    7.30605758782117    1.94629445337556
H         2.88168630836708    9.06316289153599    0.77697231229487
H         2.32447266961002   11.43578791742778    0.64864315589334
H         1.75127428859910   12.69976332702331    2.68625587815787
H         1.77632421739304   11.57209267153081    4.88230195880765
H         2.34705722609696    9.16506662048173    5.01814678284955
H        -0.33641072277563    9.63293051775733    2.21006693527078
H        -1.21909905678473   11.62510720912533    1.08251582750030
H        -3.64205158371520   12.08554744500957    1.09035994185472
H        -5.18562902639482   10.55032374746896    2.25002887882097
H        -4.29195849872008    8.53950669987969    3.39393554996698
H         2.16897210327376    2.89834674831691    2.11958534210796
H         3.85179046457140    2.62319886277912    1.64725945507613
H         3.45024317085645    2.75702711118083    3.35832845190756
H         4.86270637274654    5.55243584530990    3.54033706123333
H         5.08764110128825    5.87125629617213    1.82869493452563
H         5.54849597775667    4.29001368269363    2.50122281149724
H         0.36368922981195    4.05977840127187    5.76856960362732
H         0.68850980606549    3.76146289128362    4.04541256005299
H         1.91260862360904    4.54947940131831    5.07976927480705
H        -0.78755041990001    6.72887026506455    6.13020766134463
H         0.95922704541978    6.56430538097865    6.40235913347686
H         0.32099950359629    7.79281939531098    5.28291737084673

