17
CSD_code = FEWWAH | q = 0 | S = 0 | Stoichiometry = C8H5O2ReS | MND = 8
Re        3.03025872414666    2.32909317511464    4.61055007817016
S         1.43069074577202    2.32928983635266    1.49106275888589
O         1.20351616169601    0.07962990982152    5.67796281567284
C         2.06994875060945    2.32878012708081    2.89654942349881
C         1.84039046187836    0.93868861210672    5.26608336726840
C         4.93466988708226    3.03430568564041    5.81357723837034
C         5.18005314349748    2.32906552989818    3.64257841857940
C         5.06676348542791    3.47635939050696    4.46716570724746
H         4.96208039052223    3.66717885317054    6.68852371568603
H         5.41802236067517    2.32906406134007    2.58873171549428
H         5.25027757331151    4.49451612787294    4.15664484363769
C         5.06674413334533    1.18177529205756    4.46716637200709
H         5.25024792981365    0.16361645033161    4.15664558924017
C         4.93464397639811    1.62383180967144    5.81357842435416
H         4.96204576238094    0.99095689497878    6.68852358797989
O         1.20348054196506    4.57849163156692    5.67802584058295
C         1.84036597147788    3.71945661248820    5.26613010332440

