79
CSD_code = FEWYUD | q = 0 | S = 0 | Stoichiometry = C32H39F3N2O2Zn | MND = 4
Zn        3.45046766925698    6.89326817937522    4.38839402638384
F         3.58298734974487    6.45673619951420   -0.63605595510667
F         1.74632297205050    5.39461175841298   -0.34828524449663
F         1.80315108684986    7.50187961937981   -0.00134026306214
O         5.03643318474523    7.35599957765132    5.04505533864650
O         3.00830652993023    5.04221978756327    4.36110087535779
N         2.40347327829607    8.66542432360393    4.40163222031779
N         3.16507435543451    7.08904278370958    2.44617381759906
C         3.05178858459131    2.50609501183545    5.06528231589957
H         3.07793791211858    1.43310745181656    5.23831926911565
H         2.20461744324727    2.92762010646572    5.59996242285622
H         3.95975249512083    2.94965446778284    5.46571469635367
C         4.14826594093280    2.19382882341341    2.84383623528592
H         4.18928483884594    1.12236162265377    3.02678280532389
H         5.06616948556320    2.64313702884923    3.21529224038886
H         4.09483144140633    2.35688817225774    1.77122035003982
C         1.63738348633801    2.17864897851840    3.03211460288200
H         1.62054639088446    1.11425735147877    3.25569028114767
H         1.54672323362546    2.30113437251024    1.95674820983589
H         0.77540320391616    2.64325460462318    3.50514163300849
C         2.93602306142604    2.79363988008037    3.56686128356076
C         2.93659586319112    4.30877849808345    3.34047232985046
C         2.83221257509392    4.77452579842656    2.01914384439609
H         2.66132186731143    4.04569632454654    1.24618733705741
C         2.87638458670404    6.10778450833344    1.62964979139285
C         2.50692368491979    6.37142607028525    0.16948444285702
C         3.28929013816112    8.43527480452257    2.19954633483384
C         3.86877724498296    9.03167434519852    1.09498269795472
H         4.28033817581420    8.43011310178466    0.30137325840563
C         3.95669616412290   10.42311243968671    0.99897777773786
H         4.41168530308793   10.85252617612375    0.11940310556411
C         3.46642562285348   11.23788207780221    1.98452898402169
H         3.50667765861806   12.31229886129119    1.89112591458728
C         2.91027168050381   10.67353951572943    3.14823074936855
C         2.39076393791612   11.43379303584153    4.21720160666388
H         2.41427110890413   12.51221348587620    4.15838971984753
C         1.85609752020962   10.79625926162288    5.30085789366219
H         1.42653631168136   11.35119767718724    6.12043281299082
C         1.88978250231271    9.38889427630082    5.37291831939224
C         2.86242592124914    9.26534256409985    3.27821570089248
C         1.31787500446544    8.68514052222446    6.55478768626183
H         1.33949830229011    7.60921646043492    6.39786716538668
H         0.29050894902539    9.00762600828055    6.71764094113299
H         1.89108461809707    8.92506001329365    7.44797679083481
C         6.12015424341128    6.79657885275036    5.59211840088168
C         6.18204610808549    6.55811941322364    6.99015966880409
C         7.31509436692419    5.96232553387023    7.52104156468359
H         7.37705787077975    5.74770659877343    8.57469892829573
C         8.39423557240214    5.62770774665593    6.72976790710782
H         9.26330250080222    5.15589064594067    7.16485344063431
C         8.36261134381686    5.92003477762274    5.38199501590198
H         9.23009398207831    5.67501195018712    4.79245362365403
C         7.25587703345986    6.50658981724844    4.78907255948273
C         5.03870806708149    6.96676829747082    7.91917448340138
C         3.78434199950499    6.14349574428405    7.60537027881990
H         3.99559230644557    5.08400238427477    7.73341964780975
H         3.45702886089537    6.29879960069572    6.57452313763008
H         2.96927733253025    6.41895268844005    8.27314019631568
C         5.35502336821663    6.73730645345900    9.40452266499568
H         5.49257460509442    5.68163209847536    9.62503767686185
H         4.51955482823043    7.09514260467483   10.00478233347595
H         6.24354887104753    7.28581238200395    9.70705600459435
C         4.77570444695331    8.46963996178671    7.75202029003034
H         3.98377590638856    8.79507688821541    8.42603271586331
H         4.49783845792446    8.70154024519227    6.72884273609015
H         5.67920399704149    9.02643045972569    7.99230316656864
C         7.27610933641335    6.80063199122570    3.28863714643158
C         6.31351007788381    5.83115467476649    2.59194481167440
H         6.20647246292189    6.08003430643592    1.53716499193672
H         5.33359543309249    5.86369452722970    3.05981298171790
H         6.69111816625063    4.81303239656860    2.67163125114550
C         8.65856600697068    6.60344378719287    2.64970339293469
H         9.40759493653877    7.22452970226410    3.13525916808839
H         8.60599609434257    6.89446202782107    1.60178180789602
H         8.97665821903950    5.56428916060245    2.68683107895597
C         6.88197189197277    8.25968220039991    3.02148658881899
H         7.61553717414570    8.92542371991501    3.47204834130019
H         5.91104333492787    8.48790060241238    3.44629719921738
H         6.84909211050465    8.45286982970446    1.95007843155180

