83
CSD_code = FEWZIT | q = 0 | S = 0 | Stoichiometry = C32H45O2P3Pd | MND = 4
C        11.72028363463005    7.01957068848657    4.69918699725293
C        12.21948941189656    8.01841963635938    5.52654834908643
H        12.98056438817124    7.75377930191152    6.24553602168776
C        11.76346942418125    9.31730361581356    5.41612622243304
H        12.16551270418650   10.08457296973952    6.06112353830071
C        10.80934959956329    9.63365409242628    4.46266214777191
H        10.46681859051600   10.65206075808417    4.35377082175127
C        10.29940875727961    8.64371795929545    3.64676966636596
H         9.57045860237980    8.90114339864579    2.89258883678977
C        10.72599847375811    7.32093945091599    3.75287545120674
C        10.14071435179945    6.25448470388190    2.93903012001342
C         8.84132763475972    6.31175251980050    2.43282225242471
H         8.22331351041902    7.17625122682579    2.62722754731056
C         8.32091011284840    5.25541228160672    1.70756784951824
H         7.31415675695042    5.32112961686181    1.31937849266692
C         9.06727830484895    4.10570714136723    1.49023267849105
H         8.64533439266547    3.28052923520717    0.93387812340912
C        10.34579988326861    4.02595253536303    2.01108620793329
H        10.95244542584286    3.12163451768957    1.89776925327201
C        10.87989398297658    5.09282678996717    2.71081385423676
C        13.08672837252914    0.65971366004419    3.91567384913345
C        12.35083006085155   -0.20824221593809    2.99128888782831
C        11.96573586047839    0.28811579778934    1.74262264696637
H        12.24695729813759    1.30925559102437    1.48036581831881
C        11.26382780914638   -0.49164887761337    0.84472025693677
H        10.98672816900376   -0.08905492549810   -0.11975195613879
C        10.90589109019781   -1.78632215929209    1.18528348282553
H        10.34802625266173   -2.39706221447138    0.49083692465990
C        11.26296895360076   -2.28990362162836    2.42542753507756
H        10.97997061920245   -3.29681297468555    2.69855022606542
C        11.97882722001755   -1.51485781277106    3.31777265505571
H        12.24513980652027   -1.91991217322780    4.28412183907083
C        13.96968948248050    0.16218454507838    4.77833409593575
H        14.21524907551706   -0.89474761102997    4.81724009910348
H        14.51778168126596    0.78127180630885    5.47803914892417
C        15.86654242974919    3.82867725367025    3.00928395183595
H        16.85002000535003    3.49282123316190    2.66772999891648
H        15.69808639597558    4.85249761264436    2.67033618762400
C        15.76735331460016    3.77257280788814    4.52835168873885
H        14.81829214349827    4.22969146026173    4.83396157909874
H        16.57748817403129    4.33197000331766    4.99378394393387
H        15.81398423553148    2.73828731580280    4.87947585983015
C        14.38256609115324    3.60884083077243    0.62355547894271
H        14.02012951157230    4.61500430103377    0.84948921354370
H        15.39156070254335    3.69382224566898    0.20830719298425
C        13.44670175909582    2.92977035100669   -0.36834219607410
H        13.70005671212406    1.87921143658442   -0.50790673205862
H        13.51170584158724    3.42783330882629   -1.33446027370236
H        12.41445568306283    3.00252591049045   -0.03029515697022
C        15.46976807488516    1.20417905563616    1.87511880399185
H        15.89668160497786    0.87897990854703    2.82952375456662
H        14.73137139572285    0.45086681674258    1.58711242894235
C        16.55915012673986    1.29345071399837    0.81484766093678
H        16.13704888728235    1.47299258342667   -0.17038349000980
H        17.10725756299839    0.35342214424080    0.77807706996786
H        17.27014816826699    2.08695005595477    1.03511327057332
C         9.97541522214112    0.92515181168730    5.04113078902889
H        10.60509431058079    0.03337763465794    5.00397293669156
H         9.34190356533271    0.85580315127753    5.92920765382026
C         9.14135796306008    1.02097554969510    3.77004381096470
H         8.47547176653442    1.88132738320599    3.79972362762153
H         8.54205005557960    0.12206495654831    3.63621020016512
H         9.79770368043447    1.12470800631326    2.90633366310245
C         9.90254669524551    3.75202318029552    5.57714398227757
H        10.50812752448339    4.57544108146047    5.96399375158316
H         9.49206638913195    4.08170560099001    4.61931490491884
C         8.76231451277040    3.44778204629417    6.54101452556164
H         8.05438168886493    2.74260986591170    6.11282924244656
H         8.22446204408565    4.36975479992774    6.75545271269814
H         9.12395907863857    3.04674129826702    7.48526830862525
C        11.85327869001737    2.06974874920685    6.86769472120678
H        11.10970742128758    2.17675107234152    7.66155887925787
H        12.21824122421288    1.03813528962706    6.87035392208187
C        13.01378434410017    3.03952612574046    7.05601366129687
H        13.70795591899137    2.92368204305114    6.21469435699957
H        13.54742235829075    2.84565867097916    7.98523923833599
H        12.66092663877188    4.07019427818438    7.06484201214143
O        12.19848742865313    5.75544776980476    4.86916696706388
O        13.48200150454514    5.82823195901032    2.65265285780069
P        12.56228605396467    4.95674800753458    3.42670847837434
P        14.55835103587726    2.77444704599606    2.25595389602680
P        11.09168920356581    2.38064276183035    5.22135685863536
Pd       12.80056516554975    2.67173325612709    3.72252386400120

