53
CSD_code = FEXDIV | q = 0 | S = 0 | Stoichiometry = C12H32B8Ru | MND = 11
Ru        7.18453238608526    2.78225539190523    2.48334191612272
C         7.58222623960736    2.91654118799244    0.27468915808096
C         7.98982039029061    4.14691418360965    0.84811364284762
C         7.09272925329543    4.86471708985858    1.69334360094967
C         5.74933098804672    4.42123573630667    1.84830651322436
C         5.34834645629237    3.18175332255875    1.27857132921091
C         6.25281312500417    2.43856490156739    0.46585668474272
C         8.53891662103467    2.13541103814770   -0.59018555298397
C         9.32697329296765    4.74657900584965    0.48920238048306
C         7.52725568670852    6.16488000833561    2.32141491246129
C         4.72463201354489    5.31077234843245    2.50963351856802
C         3.93077460837909    2.70180780769283    1.46658783495373
C         5.76123037230964    1.24748622524436   -0.32080703550913
B         7.92636571753687    0.65630886994547    2.89065926111592
B         9.13086321986764    1.91058315451014    3.10410466161333
B         8.63596073109466    3.17332339465757    4.21245914629734
B         6.80009833652365    2.84584605508390    4.57891062252145
B         6.35824172732974    1.29705522126441    3.77436115534753
B         9.47372591179122    0.37313120623137    3.84855003798888
B         9.90893445306940    1.90810914369443    4.65957799776111
B         9.17004960445084    0.38322929562003    5.97295673451682
H         9.56270741155452    2.27655205833367   -0.25621889677502
H         8.46623758596998    2.44978264015361   -1.63426481127039
H         8.32806816692699    1.07163573844420   -0.53204789297794
H         9.27184648525670    5.83252149614720    0.48623787039162
H         9.63455355373655    4.43333105338602   -0.50542057758210
H        10.09851120152485    4.44353571925531    1.19792278230611
H         7.01644060401522    6.32179514081806    3.26789495789843
H         7.30870192170882    7.00978370711083    1.66334652003230
H         8.59370467055120    6.15562220880858    2.52684332696509
H         5.00638586189399    6.35649769909805    2.41927742643913
H         4.61481437293134    5.07826611346439    3.56908121823975
H         3.75401869823174    5.19162272214733    2.03334307478477
H         3.88203961339695    1.61711787149004    1.43591065793414
H         3.27895267287623    3.09999787957548    0.68507364068311
H         3.54427727829915    3.01716371751258    2.43198132983738
H         6.27803942830905    1.17974533141882   -1.27517363355060
H         4.69877027976851    1.33584638283351   -0.53289901019417
H         5.92519086327142    0.31598359210216    0.22185144461914
H         7.74659899250251   -0.03687708882326    1.94661183442366
H         9.90428068355938    2.15083515136444    2.23832460049291
H         8.98716038070285    4.30324452841239    4.23366990401738
H         6.01179059633828    3.61202537242168    5.02385779675335
H         5.24782151771163    0.91410452873365    3.62336526330814
H        10.28243115881709   -0.37208432704817    3.42148358605504
H        11.02578171723905    2.25725396571144    4.81093293434656
H        10.00461159401607   -0.17605986630305    6.59106986703099
H         8.09574665727529    0.41672386736688    6.48275961964425
H         7.11578264663526    0.24404618506879    3.83124586340462
H         7.89224074468941    2.98369250991338    5.27105784873768
H         6.47455930904069    1.64111441577290    5.05415461440331
H         8.97315681795314   -0.25715042058490    4.87850657179094
H         9.50005537806646    1.61902551738769    5.86607174749474

