65
CSD_code = FEXDIY | q = 0 | S = 0 | Stoichiometry = C28H26N8S2Zn | MND = 6
C         6.87290393962721    3.69353154249748    4.89523938021582
H         5.79473393900790    3.73341706287493    4.97518134951662
C         7.62615466825645    2.92724264162315    5.76832807939030
H         7.15019052862519    2.35411752931961    6.54745619280127
C         9.00603717075282    2.92336289454437    5.60829867421740
H         9.63279215572551    2.33862464117765    6.26579417618087
C         9.56693431038514    3.67759243277355    4.59881191783836
H        10.63498556473259    3.68893004611033    4.45675615149160
C         8.73411875290716    4.43266883537177    3.76120409333107
C         9.25234567813288    5.25800018294322    2.68968371746449
C        10.72714314716874    5.35450492107665    2.44126576120390
H        11.12762411370444    4.39969060705309    2.10144554217198
H        11.24779440927698    5.64748889675233    3.35117459298837
H        10.90384877977083    6.10734866119183    1.67808410137652
C         7.83981241157166    7.36562823033290    0.35282177759080
C         9.39131827461244    8.23440471871846   -1.40795486676242
C         9.50068645116078    9.26891699601791   -2.34018691609878
H         8.66321889042671    9.93530195417740   -2.49353524645193
C        10.66681223854387    9.44644178783754   -3.05710378197528
H        10.73704160725042   10.25423089191479   -3.77075702417256
C        11.74312804992473    8.59578005220703   -2.86237489468084
H        12.65599838671492    8.73738077515917   -3.42088586212823
C        11.63486753406396    7.56104693076382   -1.94855759566204
H        12.46603693449429    6.88747739369582   -1.79750469506680
C        10.47098601545204    7.37278158460260   -1.22698478622293
H        10.37940018656453    6.56359222766461   -0.52380237509444
N         8.18954138953643    8.10874891046153   -0.72821292988659
H         7.44141730541985    8.71094153903085   -1.04943007677797
S         6.19439728909188    7.53315756594368    0.79143639460042
N         7.40196259430213    4.41726945820131    3.92691594788008
N         8.37360180721193    5.90064468443560    1.98504888505113
N         8.75850408421936    6.64317161855809    0.95450412506247
Zn        6.45450805537142    5.96127770578725    2.72179506834977
C         6.03588305330086    3.69456208630723    0.54734489362758
H         7.11422342498752    3.73259807898561    0.46885516188898
C         5.28272111299164    2.92714496955546   -0.32480962677483
H         5.75866304111231    2.35395128019433   -1.10389985762761
C         3.90288365222188    2.92293882210847   -0.16446738727576
H         3.27605612193290    2.33879915797875   -0.82243417626186
C         3.34195905314744    3.67778456065129    0.84455120689139
H         2.27392966475703    3.68899507698989    0.98674910622668
C         4.17480303587390    4.43261326826358    1.68232535485364
C         3.65658117067544    5.25804363304318    2.75376508582003
C         2.18182383970155    5.35450962802441    3.00229236237613
H         1.78160886548221    4.39961778919471    3.34217215285469
H         1.66108051452064    5.64739841734172    2.09239460990152
H         2.00512249181131    6.10733565846488    3.76551210212682
C         5.06928847771642    7.36522433130074    5.09092127781269
C         3.51753009799061    8.23460166633163    6.85117051469338
C         3.40816427536700    9.26900389093345    7.78351581995683
H         4.24566848585886    9.93529003996922    7.93705108229277
C         2.24211495840640    9.44631236476091    8.50059227567134
H         2.17181543756837   10.25413458613532    9.21419745346034
C         1.16579028472911    8.59570292702301    8.30573536608969
H         0.25291812534504    8.73723457114207    8.86425280396540
C         1.27416842372509    7.56087288588588    7.39208655708247
H         0.44287623092519    6.88753934901293    7.24069930757906
C         2.43801780640195    7.37272249564947    6.67046430791843
H         2.52953286070528    6.56367944422171    5.96709799373513
N         4.71938946570990    8.10881342707426    6.17160606865386
H         5.46751343839691    8.71100516819308    6.49284564900795
S         6.71449889123104    7.53337330702326    4.65178582618725
N         5.50690581594063    4.41768965702821    1.51619799145483
N         4.53533027283976    5.90081692986876    3.45826764998693
N         4.15049094461278    6.64307461052048    4.48900618807254

