57
CSD_code = FEXDEU | q = 0 | S = 0 | Stoichiometry = C20H26N8S2Zn | MND = 6
C        -0.96545083755181    5.48941360039988    5.43937067032472
H        -1.54690505512849    6.00722227661189    4.68812423920753
C        -2.89049296062395    1.75264071659507    3.80055001361553
H        -2.20223037731279    1.20730161084673    4.43253183108627
C        -4.18524251537782    1.30507154272761    3.60323564830105
H        -4.53243471041361    0.40054411966945    4.07603455918204
C        -0.76188009011843    6.04423119183400    6.69135086300639
H        -1.18139767412663    7.00527737617520    6.94182724207863
C        -0.00082075203767    5.32692874514591    7.60603841847778
H         0.18799915220720    5.72340377413724    8.59323369271615
C        -5.01435643155424    2.05300759656202    2.77613934509352
H        -6.03038554307562    1.73684105259316    2.58868818711669
C         0.51360025650639    4.10215518651450    7.23652471485662
H         1.11281110011361    3.53213663395220    7.92734570515205
C        -4.52190893770240    3.20110867390787    2.19327962695662
H        -5.14371071280214    3.79166826155351    1.54073999932838
C         0.25985648314027    3.60992802461575    5.94796890841356
C        -3.19530257194348    3.58437084428725    2.44134851420769
C        -2.60570034788381    4.76069717922192    1.84348695202577
C         0.77097833703332    2.33677056218306    5.48985740602911
C        -3.43801522873919    5.71372178223973    1.03772894074145
H        -2.82256953288145    6.57133653945753    0.77959108670278
H        -4.30670969589102    6.04681130061500    1.60356578567911
H        -3.78025585508692    5.23932275404932    0.11873571887620
C         1.52834744749531    1.43354885680396    6.41703114209857
H         1.76973479364769    0.51860012384143    5.88293153427267
H         0.93399928518334    1.19300739497422    7.29730220184267
H         2.45409607625760    1.90803984190510    6.73954841652669
C         0.72567609817380    0.64095882578434    2.48083691706448
C         0.59584539306429    6.07512136328100    1.70954392297159
C         2.53119405950240    7.53318061362475    1.12584226023968
H         3.04294078094106    6.86963283380382    1.82496351969481
H         2.97374925696632    7.40075194255229    0.13043542247602
C         1.91969347477942   -1.49783140435336    2.74291611686677
H         1.69450854725958   -2.50466629656274    2.38055207698587
H         1.63816880399320   -1.42323963881745    3.79422444247880
C         3.40852389923008   -1.19718921589454    2.58175065855472
H         3.69832271143508   -1.25643382574041    1.53495857313446
H         4.00014771397386   -1.91019852675715    3.14968660223402
H         3.61928338640517   -0.19471975533057    2.94458911032078
C         2.67384190191776    8.98664982774629    1.56444700196888
H         2.15090980804642    9.64816012144835    0.87634022062549
H         3.72335117209003    9.26647868615307    1.58290613882871
H         2.25926892357251    9.12106333109151    2.56016064942798
N        -2.41028179207332    2.84896725818195    3.24487705980656
N        -0.47798145710224    4.31780866831001    5.07820782529946
N         0.54217696795474    2.03367219072306    4.24968941217720
N        -1.33148656392190    4.92732686461583    2.02595243879579
N        -0.71084927194512    5.96931071172323    1.49754092771758
N         0.95830199260296    0.87516316188599    3.75955518671633
N         1.14970395409070    7.13556030038015    1.09372342083050
H         0.51430854505982    7.68952898913864    0.53766704753526
N         1.09533479299721   -0.56765825360234    2.01074678193899
H         1.03830660177259   -0.67225914132376    1.00897451818437
S        -0.02720348921113    1.66931826512448    1.34525762894146
S         1.57368147222283    5.05292655863192    2.65484680117877
Zn       -0.32949078511163    3.46760798072463    3.06169595308640

