101
CSD_code = FEXJEA | q = 0 | S = 0 | Stoichiometry = C50H44I2P4Zn | MND = 4
I         4.99539245049897   12.91628744736746   14.22116832854272
Zn        7.36148722554932   12.04048905482121   13.94330999641390
P         7.22746801314199   10.25462394187103   12.11969647700365
P         8.76749002105474    8.56398703109694   10.06233148387081
C         6.23536513571278    8.77094689451997   12.44275149127905
C         4.89366707416501    8.98694970292619   12.76402375392333
H         4.49676381448455    9.99425245425346   12.75834031496772
C         4.06938251909810    7.92239936578072   13.07353934975936
H         3.03219710904514    8.09918571615526   13.31735644263494
C         4.58043868320187    6.63285299269387   13.07859616323275
H         3.93851002840734    5.79762027898042   13.31716392343439
C         5.91510637371071    6.41601879187035   12.78001828102339
H         6.31500164826185    5.41279377119093   12.78759679251015
C         6.74500754608532    7.47922381247639   12.46935770247452
H         7.78354274217663    7.29148992477727   12.23720561906077
C         6.55560748206587   10.89422018833134   10.55489082708807
C         7.02544152496820   12.13783560822438   10.13941224161520
H         7.76081621990629   12.66617358020909   10.73508087697478
C         6.56049681326693   12.70070303288905    8.96777581061809
H         6.93287134842055   13.66223890664099    8.64799078361130
C         5.60958891378633   12.03308027195246    8.21334900199652
H         5.23610331869620   12.47738619604400    7.30301478011098
C         5.13381559268535   10.80099397415229    8.62825042099745
H         4.39115204420196   10.28197839820765    8.04009678103431
C         5.60401352380849   10.22587225838130    9.79516081954270
H         5.23269612650267    9.26239033860164   10.11404783714705
C         8.87715617705838    9.64099594988381   11.59170289323387
H         9.30683805723657    9.08096669473379   12.42877624368372
H         9.51156384577917   10.51437561781729   11.40992159330686
C         9.00696343419850    9.85445883156706    8.77894966576117
C         9.98517510069013   10.84193601353892    8.84899907312749
H        10.68178512363458   10.87016852982611    9.67583987224137
C        10.08813240826985   11.78598749754297    7.84535003260936
H        10.84608014530276   12.55288972103787    7.90978222353056
C         9.22826600624462   11.74848489520044    6.75904205505305
H         9.31241858937306   12.49052306566830    5.97888313451231
C         8.27002734395425   10.75408338645290    6.67087847269612
H         7.60607053502347   10.71331862892421    5.81989258554175
C         8.16137128370339    9.81096117908559    7.67674314204317
H         7.41378408910751    9.03181210401527    7.61683989996091
C        10.46078511034600    7.86146086476526   10.12754563631160
C        11.29981433609271    7.88893149515221    9.01749692800004
H        10.98457539869048    8.39743032326098    8.11742852651583
C        12.53773092008653    7.27433151172533    9.06110548668419
H        13.18385377552996    7.31348365476111    8.19628489690381
C        12.94851608845001    6.60961177365765   10.20408254232653
H        13.91742134264082    6.13410546617982   10.23720666998483
C        12.10487841020600    6.54648314904099   11.30020783691861
H        12.41171936112699    6.01485559308863   12.18941216500104
C        10.86547020827772    7.15615575839019   11.25813902547447
H        10.21136448771925    7.07820203275784   12.11638414508299
I         9.72771061354152   12.91641196200728   13.66514854222873
P         7.49545980550554   10.25439756465944   15.76694714302338
P         5.95544127639880    8.56396482281714   17.82425132106495
C         8.48758162031552    8.77075260369247   15.44376434788576
C         9.82926767233535    8.98675976932255   15.12243162429759
H        10.22617581127229    9.99405893782833   15.12809838234225
C        10.65354926479263    7.92219957087781   14.81293104523340
H        11.69072834103879    8.09897469726279   14.56907623332636
C        10.14249205867288    6.63265301518959   14.80792268334191
H        10.78440260038758    5.79741860735138   14.56931983543471
C         8.80783979207950    6.41582236947690   15.10656422893056
H         8.40794212114951    5.41260210174132   15.09902395219979
C         7.97794790445025    7.47903016752689   15.41722522853817
H         6.93943320923357    7.29130746239666   15.64946759920635
C         8.16740707672535   10.89404639899409   17.33170320428706
C         7.69762871747412   12.13769996198323   17.74713697138997
H         6.96232247238317   12.66607419732731   17.15141852126509
C         8.16252460766342   12.70053591668944   18.91880919907739
H         7.79019565228867   13.66209986822828   19.23856157498627
C         9.11333466620832   12.03284442121397   19.67329877085920
H         9.48680088609493   12.47713399308937   20.58364726889936
C         9.58905700843837   10.80072606996135   19.25843566686064
H        10.33163405305672   10.28165162059386   19.84664160032550
C         9.11891569319051   10.22564003381450   18.09148524395683
H         9.49015315606408    9.26211751602944   17.77263452675748
C         5.84568478142487    9.64088239497961   16.29483080984648
H         5.41603609988778    9.08084977304331   15.45773082514110
H         5.21131171327352   10.51432859759426   16.47650427133092
C         5.71573139366377    9.85453210165858   19.10749576586070
C         4.73750483353809   10.84199013294608   19.03724260315275
H         4.04098617519742   10.87014069226156   18.21032133401764
C         4.63441376897245   11.78613955225593   20.04078793930452
H         3.87644410835659   12.55301077376026   19.97621589426494
C         5.49415795390806   11.74876430954824   21.12720000128988
H         5.40989215399086   12.49086743646806   21.90728491129011
C         6.45241054057446   10.75439381641451   21.21555959790420
H         7.11627475651522   10.71372775756211   22.06662144294853
C         6.56119666566773    9.81117541776055   20.20980009963321
H         7.30881677810186    9.03206807919247   20.26984866180722
C         4.26212336085990    7.86152856127919   17.75888611150870
C         3.42303704485613    7.88899972792316   18.86888466698442
H         3.73820345354724    8.39749231887897   19.76898005271189
C         2.18518470231629    7.27425893486569   18.82527912007235
H         1.53901239598651    7.31340365400927   19.69005379503300
C         1.77451539760149    6.60941646812224   17.68232662762703
H         0.80562007207896    6.13390392639082   17.64915978899680
C         2.61821081949049    6.54629715811966   16.58624757745219
H         2.31143495003194    6.01465680906148   15.69703553785932
C         3.85755885293511    7.15610483742731   16.62832006244472
H         4.51170627479934    7.07813544593313   15.77011673845072

