44
CSD_code = FEXQEH | q = 0 | S = 0 | Stoichiometry = C18H15Cl3F2N3O2Rh | MND = 6
Rh        4.72502128285609    3.52379840100720    0.54684514909255
Cl        5.68187125488250    5.60735332094747    0.67202915803221
Cl        4.22711823537199    3.81153541383662   -1.60877174985386
Cl        3.71735367816931    1.41894298473192    0.58828124804013
F         8.66788416184881    4.73129718690867   -3.50794087866152
F        10.57820939540751    2.84852005077268   -3.24707735201782
O         5.03195121176603    3.09178399600180    2.65453936686926
O         2.88442765584307    4.61233491409661    0.88474572925839
H         3.16158087538814    5.49380601708908    0.56867687329164
N         4.79270594361300    1.36515325433212    4.04287224268153
H         4.16605178496115    1.96253733588748    4.57101977031248
N         6.41066865151519    2.63770319992661    0.24168281610655
N         7.99993473012016    1.11855605042917    0.46404087524441
H         8.52227482893106    0.34642314158823    0.84207739118503
C         7.34775939120844    2.86677812448627   -0.73628395072054
C         7.42884687411165    3.85088250544192   -1.71891350943698
H         6.66858027455274    4.60690405762032   -1.83574389206551
C         8.52954128820738    3.81075646640046   -2.54586207605651
C         9.52968565681702    2.83302811077705   -2.41204883253168
C         9.46952932782582    1.86026766712896   -1.43665143769508
H        10.25159943338627    1.12497442057075   -1.34598783476858
C         8.36430013162560    1.89635378293364   -0.59971826430409
C         6.82172094235113    1.59684039838381    0.95455855654600
C         6.18025664334519    1.04351756320853    2.12761412782341
C         6.42038694733190   -0.23738362751776    2.54650938811115
H         7.04066830345828   -0.89833075371513    1.95891531296888
C         5.83158703439100   -0.76255329311649    3.72628824004502
C         6.04404689667849   -2.07657691943309    4.16849511482971
H         6.68091711676342   -2.72287342258286    3.58278156874424
C         5.45386498323054   -2.54686456315435    5.32159786263753
C         5.67357589686684   -3.94782888956589    5.79919873412098
H         6.32752076120167   -4.49327903719836    5.12476229590017
H         4.72383567065047   -4.47603999308329    5.86671609403854
H         6.12106094224933   -3.94302090349538    6.79209008438294
C         4.62937306385846   -1.68524881642762    6.05743912178708
H         4.16374278201231   -2.05003818555872    6.96063401172828
C         4.40106222987716   -0.39038534691311    5.65020006941343
H         3.76001395523755    0.26108138709241    6.22519520320532
C         4.99674490800792    0.08259226922637    4.48267697850605
C         5.29840427497558    1.90638780522430    2.90357478801313
C         2.39967913370766    4.74442042093754    2.21164264583554
H         1.54148875847826    5.42281973493346    2.21933648654751
H         3.17390854599258    5.11838165559889    2.88817492050114
H         2.07834414082304    3.75349211425438    2.53348755230923

