50
CSD_code = FEXQAD | q = 0 | S = 0 | Stoichiometry = C20H21Cl3N3O2Rh | MND = 6
Rh        5.30959283457936   11.52659055039475   14.34030395344606
Cl        3.06814028083648   11.01787319741580   14.33547642075448
Cl        5.26280229636178   11.99413380596838   16.52187041321866
Cl        7.56035292293986   12.11943100481192   14.16910930032724
O         5.52697702957812   11.24283708970061   12.20445678003551
O         4.56974715195364   13.57014536837096   14.12074592615247
H         3.65550256070408   13.42553601329146   14.43290602591255
N         5.86700055958250    9.68817417909683   14.52464496288922
N         7.02319139778929    7.84775739294301   14.13240395084740
H         7.64619177357628    7.20310591023470   13.67687443723357
N         7.16955882103344   11.21889096344576   10.69920428554041
H         6.67393832681889   11.97811408996318   10.24528395169039
C         5.52842084736167    8.76820863115264   15.48835997236084
C         4.62478060522716    8.81930466411154   16.54519623510066
H         4.05096777061420    9.71343016812924   16.72603834823432
C         4.48755943561974    7.70525180641470   17.34943604946535
C         3.51982457365636    7.74497099054052   18.49108850517661
H         2.76552668533607    6.96620668690042   18.38556880763904
H         3.02223917323391    8.70906112172051   18.52771952833214
H         4.03499157361942    7.58411805497256   19.43710045029747
C         5.24263746630039    6.53427167883359   17.10875082211593
C         5.07655477937860    5.34438496020457   18.00183714697287
H         5.72461215774500    4.53056718030339   17.68736172695771
H         4.04544059263544    4.99416911959788   17.98476034757982
H         5.31906886668660    5.60400836241122   19.03125309983225
C         6.13121062678566    6.47343295947794   16.05029435534295
H         6.70360972842299    5.57896416981843   15.85506707584901
C         6.26406746676123    7.59240495243420   15.24475424592639
C         6.75297882843056    9.11657854299273   13.71845112302074
C         7.33951572386416    9.69412187286835   12.52864337568072
C         8.51254329694112    9.22888219460246   11.99956196572828
H         9.07383890769408    8.45832727915270   12.50760824774503
C         9.06105339445092    9.76466079992448   10.80453976726616
C        10.26968185450538    9.32010624978349   10.24986149483629
H        10.81320892352826    8.53558320590455   10.75557125972979
C        10.76748812481640    9.86790536329216    9.08717871378960
C        12.06123012114429    9.40356678987009    8.49439720970381
H        12.79539673801103   10.20788270282271    8.52048087361539
H        11.92140590703327    9.11593251822869    7.45368964620355
H        12.45991175549361    8.55427811949393    9.04220293353431
C        10.04249185652576   10.88713074401466    8.45679090785366
H        10.42972131581240   11.32075619790158    7.54693619330579
C         8.85232878497509   11.34492589446331    8.97563305078918
H         8.30505927843692   12.13372342176713    8.48111188550884
C         8.35174083852753   10.79083939798467   10.15183014778899
C         6.61856853539736   10.76637132242503   11.85664995754653
C         4.51850552577596   14.15116148962247   12.82886696487972
H         3.99164783950757   13.50792472980859   12.11771901346580
H         5.54890065655427   14.29170199815260   12.50152491839880
H         4.02167348743997   15.12459409226324   12.88578322437851

