39
CSD_code = FEXRUV | q = 0 | S = 0 | Stoichiometry = C16H19ClN2Pt | MND = 4
Pt        2.95786451328555   -0.06945831030063    5.14314629332522
Cl        2.30433705164630    0.54740313863499    7.15698702616097
N         1.80081381515634    1.46039041204826    3.96401078722960
N         3.64684007795196   -0.42193771184684    3.35558245271304
C         0.84400062163677    2.34009988043275    4.25235812026170
C         0.48090309204322    3.33704121024013    3.34659347028321
C         1.10399433664063    3.41330245096290    2.11109588536708
C         2.05886859696934    2.46954505739024    1.79496841072767
C         2.38447312879964    1.49963323803278    2.74799914319339
C         0.14825465095139    2.23725448374502    5.56372672940083
C         3.33467384641507    0.46709367627066    2.46310942766831
C         4.54491008116227   -1.48637895486407    2.90531525080397
C         3.71865443735821   -2.50527184855002    2.11806632582248
C         5.73480527425983   -0.90714574366312    2.16604741365341
C         6.48250900539631    0.06775398669568    2.82269945011859
C         7.58089877529194    0.64403093957719    2.21522540330843
C         7.95366979974111    0.24974906872451    0.94007500513003
C         7.22029643753088   -0.72107341440038    0.28312723501227
C         6.11502775221923   -1.29629693384321    0.89021519113997
C         4.04319508097668   -1.54300996519511    6.05730268312342
H        -0.28739162147253    4.04396031994968    3.61732539906690
H         0.83633397470280    4.18660101536721    1.40666011965543
H         2.55797066353184    2.46746010784672    0.83878715249280
H        -0.76415780464263    2.82726434581621    5.56669298276745
H         0.80372317744551    2.58815928041988    6.36013285588519
H        -0.08152646000827    1.19755212776048    5.78777126100754
H         3.77626961349757    0.44164423687512    1.47002537768220
H         4.93016243162790   -1.98900116351521    3.79690481466887
H         4.32284803758873   -3.37490932431146    1.87503841842956
H         3.32563373062501   -2.06861702759585    1.20227596521076
H         2.87991046076067   -2.82692945488823    2.73287251187229
H         6.18887814157378    0.37447951452399    3.81818891545895
H         8.14920731929211    1.39947799875373    2.73701149520522
H         8.81284859324580    0.69685728843561    0.46280890542494
H         7.50557572726956   -1.03493768937280   -0.71035814864153
H         5.55778368596230   -2.05114753521840    0.35775940586503
H         3.78911752407513   -2.51570936586813    5.62457244373425
H         3.84859383721801   -1.60002429259908    7.12846097311100
H         5.11572859227682   -1.36820504247141    5.92971744665941

