55
CSD_code = FEXREH | q = 0 | S = 0 | Stoichiometry = C19H30BrO2P2Rh | MND = 6
Rh        3.67607059622245    5.21512765348711    5.02915009482019
Br        1.87185871585751    6.49817539656585    6.18853522548307
P         2.83026723211888    3.21307124816623    5.67521030163409
P         2.42184365778850    5.49123871301764    3.15673155750010
O         4.59692414742062    6.99809646056000    4.50322435464403
O         4.81142738612293    5.15463671050599    6.76540988076985
C         1.18959555211912    3.13952548052497    6.48136707509671
H         0.42107140457589    3.53269156466890    5.81898380511325
H         1.21444978717801    3.76363606330061    7.37392804517485
H         0.95787512353864    2.10976476628684    6.75202917772516
C         2.70455548310783    1.89672629876356    4.40429532853084
H         2.38792751536494    0.96447663879508    4.86987032362928
H         3.68422190656651    1.76670531248730    3.94763620434575
H         1.98908877361226    2.17474566991422    3.63340202569485
C         3.87387247426265    2.37922258657964    6.91842846533402
H         3.46334543078003    1.39699744479394    7.15180117924415
H         3.90911057610162    2.99112750748801    7.81768753306375
H         4.88225905803819    2.28214107986927    6.51934101187115
C         0.64863695990767    5.02694208199677    3.17129267978177
H         0.20245963247063    5.29339458414275    2.21374919174996
H         0.14864587056969    5.57247704179838    3.97060047849882
H         0.53122113632822    3.95783624140213    3.33779766005641
C         2.30875268461279    7.23141783268035    2.62133111897209
H         3.31051149125177    7.60502846148643    2.41893631434947
H         1.86585505533722    7.82141153647228    3.42313475375042
H         1.69391037326474    7.30124775298763    1.72389189849638
C         3.01831924741652    4.67975647563470    1.62609932668207
H         3.02561321548121    3.59970330811906    1.75592562329857
H         4.03916982649885    5.00960770700521    1.44126015182146
H         2.38266037935227    4.94717452667099    0.78281791250756
C         5.88128157292832    8.96084828095398    4.68108831123676
H         6.96624050668244    9.01683557140608    4.71697337881850
H         5.47279461003376    9.76751936733076    5.28686014940792
H         5.54239645085312    9.08101542975542    3.65515580076057
C         5.40502882926573    7.63334423030348    5.23146231015442
C         5.89673104642700    7.25512213268110    6.48218005269139
H         6.57680053058712    7.93499615735074    6.97096350191397
C         5.58179158330981    6.07239562354791    7.15389251861302
C         6.22484003330800    5.85905509622813    8.50784489620370
H         5.77004187188916    6.53677772630068    9.22832579276407
H         7.29015576157361    6.06870009830153    8.46074191085568
H         6.06509591527063    4.83523666764037    8.83701026924458
C         5.10510567728477    4.21342109157817    4.10290392023662
C         6.03473484849284    3.62868322609869    3.59598161766427
C         7.09646615453577    2.92584239534268    2.97510149942672
C         6.92509775283771    2.36305848620475    1.70911427084630
H         5.97536252603427    2.47399686548824    1.20350673482453
C         7.96071057350776    1.67331031998614    1.10973734746474
H         7.82089673155067    1.24083874985270    0.12876854009633
C         9.17644107474725    1.53401940189530    1.76019186325983
H         9.98433055717678    0.99399993654790    1.28819813946835
C         9.35335009783029    2.09064378528745    3.01709528874656
H        10.30131740138021    1.98379267079067    3.52555053490177
C         8.32362502654079    2.78229489136728    3.62419439802197
H         8.45684217266430    3.21944765157386    4.60388825273694

