66
CSD_code = FEXSOS | q = 0 | S = 0 | Stoichiometry = C25H34Cl3NO2Ti | MND = 6
Ti       18.32448221589026    5.01352755736998    7.32701986664190
Cl       18.76689162246641    5.29243272999843    9.54225308153489
Cl       18.26754533473779    4.98158185142246    5.04337225016408
Cl       17.13060355000466    3.13926464558329    7.59149102319868
O        16.96635135938008    6.00781491680529    7.40559536177526
O        19.93725946298538    3.57206564195202    7.22838878463836
N        19.45299553366551    6.99230023915810    7.02709875797789
C        16.45313075873417    7.19147045377442    7.24590578512891
C        17.34642297842504    8.25733553375312    6.97476795898934
C        16.83207983267607    9.54849012747525    6.79711551172490
H        17.50992392538564   10.36434120989098    6.59026889094131
C        15.48058137769764    9.77407688885703    6.88633654633523
H        15.08512801706815   10.76894377893106    6.75034912208187
C        14.61042976270911    8.71986509896498    7.15225563391598
H        13.55700610498076    8.93762398155100    7.21286481168189
C        15.05758460433193    7.42450298991887    7.33599797362376
C        14.12647335865802    6.25314080217373    7.61238387737146
C        14.25331412492367    5.23950374247096    6.46426432983112
H        13.97212636194622    5.70282712466507    5.51978468349539
H        13.59676781620573    4.39154535183683    6.64567613040628
H        15.27290503706710    4.86289592964971    6.37163321459693
C        14.51166952434174    5.59859147696061    8.94849083048408
H        14.44491980031131    6.32496432937540    9.75708896964496
H        15.52700344947043    5.20027701116701    8.92539532536083
H        13.83414244349722    4.77530423871266    9.16363806913223
C        12.65954287292029    6.68628575530639    7.70432584956325
H        12.50914866207186    7.39819903772867    8.51285289659821
H        12.04360450796107    5.81325846874037    7.90753875932856
H        12.31807969372005    7.12528105436611    6.76964132362282
C        18.77160419662201    8.06818414889971    6.88741339165815
H        19.28379371599507    9.00966594071388    6.68021086827033
C        20.91783258677853    7.06138540527232    6.90582637016737
C        21.51014199977201    6.37579760957141    8.14135060120667
H        21.21283740439338    5.33184276825511    8.18111673420643
H        21.15001061470148    6.86518180129640    9.04486154698217
H        22.59558067404513    6.43577347767676    8.11552584215346
C        21.51174755108680    8.47495133425965    6.83032343053017
H        21.21374582755157    8.99982407823947    5.92502295086810
H        22.59504030008994    8.38584628246040    6.81569786015107
H        21.23425013977057    9.06283173391450    7.70330691035409
C        21.28112565809572    6.28840209278372    5.61043462820172
H        20.83095044893418    5.29605280684106    5.67379190871117
H        20.81898788650281    6.80781482038292    4.76689678574372
C        22.75822402005793    6.15269984946978    5.38146019054273
C        23.46367760954808    5.09297966288220    5.94006587746823
H        22.93659979251012    4.35926224459526    6.53130957717214
C        24.82670644595935    4.96496624148200    5.74271001647889
H        25.35998861421143    4.13594670006822    6.18515773046115
C        25.50751198349531    5.89507696822939    4.97571165229182
H        26.57140309913536    5.79666082494764    4.82002895476407
C        24.81380888377858    6.94603078901615    4.40122040848349
H        25.33581064022042    7.66908073451865    3.79180132851928
C        23.45039016724603    7.07185999537975    4.60182470762446
H        22.91643992098831    7.88934871268643    4.13953508606640
C        20.25176378445710    2.77026458190749    8.37858301170868
H        19.39025059205134    2.12671731247196    8.60918454499320
H        20.44680190740038    3.42773994362825    9.22856844090423
C        21.45967651976041    1.93265501927316    7.95225829834104
H        22.38669896102376    2.47118960371400    8.15149477366359
H        21.49349005967727    0.98753252686822    8.48795750064521
C        21.24172276988151    1.74996179910125    6.44181020895710
H        21.03497768773689    0.71454494908911    6.18178231084932
H        22.11255757890055    2.07482802026998    5.87365121365155
C        20.02372253787701    2.63695321170345    6.14010058289934
H        20.11378659016765    3.19230788171672    5.20418161193123
H        19.10012673534339    2.04062615784713    6.11512652260253

