89
CSD_code = FEXSEI | q = 0 | S = 0 | Stoichiometry = C38H44Cl2N2O2Ti | MND = 6
Ti       11.81015583387861    5.30059728947745    3.87837401585185
Cl       12.24787420423088    7.09106829014471    5.16728104422593
Cl       11.52593715679890    6.26777205105434    1.87207176513739
O        13.51115475112249    5.05595626428848    3.54443533244208
O        10.10180480933760    5.41263965507747    4.23106377370618
N        11.62477511717117    3.34352995045251    2.93016427807149
N        11.88463397615628    4.15074195281674    5.72601600770197
C        14.25243091355937    4.60451329366621    2.58383385381378
C        13.78143048769153    3.48909421872126    1.83002724875035
C        14.59311966350390    2.92032044609260    0.83540157224763
H        14.22427723857044    2.07117535163138    0.27793073552641
C        15.83021906727854    3.44563015852297    0.57634600133209
H        16.46199604115632    3.01234887343284   -0.18358950098013
C        16.27511851814250    4.56300763899881    1.28598856682352
H        17.24526767669242    4.95734898512056    1.03283428472849
C        15.52667939119546    5.16492757089301    2.27666934284390
C        15.98564311888072    6.42871059944051    2.99290043288098
C        15.01837741930577    7.56286961805275    2.62010709533898
H        15.32768165165740    8.48702085542364    3.10315140682909
H        14.00121208459080    7.33725373969251    2.94354194552343
H        15.01017935593358    7.71593159700289    1.54224954079720
C        15.97932028847620    6.22499559233720    4.51576063666860
H        16.47013423686786    7.06664570463474    4.99938510481355
H        16.50938334193965    5.31270788773208    4.78745401826777
H        14.95986025067837    6.17688209551555    4.89343066090659
C        17.40046037352616    6.84782999586026    2.57799482372673
H        17.67648838659775    7.74991860366161    3.11942469422448
H        17.45194264448766    7.07219933902465    1.51522807029838
H        18.12710612326863    6.07479482363636    2.81994704433205
C        12.50106169285347    2.91442364732447    2.09336289074172
H        12.28549976134669    1.99490617863757    1.53017191087746
C        10.39868912475979    2.58552638620848    3.03884195658302
H        10.01112459355094    2.69724572044633    4.05683385259538
H        10.58161643455355    1.51661739251769    2.84531454184461
C         9.35940112991245    3.10909057481323    2.03252496310557
H         9.29942919283070    4.19423838617579    2.15048794362613
H         9.70734634810240    2.89765976023173    1.01859949898187
C         8.01550091439864    2.48299911420779    2.26869644815967
C         7.48170904206434    1.57063929740255    1.36878187282897
H         8.03428264067002    1.31494560654588    0.47574622403037
C         6.24422880119655    0.99372588986410    1.59862491066901
H         5.83961703961532    0.28929787737285    0.88673829357660
C         5.52648015161060    1.31944353760541    2.73592960554548
H         4.56041123878563    0.87132145410443    2.91464250280397
C         6.05242496883916    2.22556028212244    3.64212746185033
H         5.49828597800758    2.48815261213743    4.53144304676149
C         7.28783558281501    2.80130794302972    3.41038105413616
H         7.68827877036547    3.51248790012422    4.11861439997497
C         9.23840497492397    5.32656218910233    5.19138464838562
C         9.55756043171368    4.51510699625163    6.32056118405892
C         8.58903714838258    4.27711969141220    7.30844879569636
H         8.83918436794181    3.64497481854684    8.14859644075196
C         7.34689035649259    4.84342684769589    7.20236997430256
H         6.58800681106287    4.64530520418483    7.94347062669547
C         7.07471042902020    5.72799050313402    6.15715745239944
H         6.10670066061033    6.20046297044450    6.14727912511957
C         7.98929541635557    6.01568723833478    5.16397246210799
C         7.72976653288224    7.07996075370545    4.10414725762945
C         8.80416872491810    8.16888446714658    4.25237782763276
H         8.62064837713094    8.96750508544450    3.53713282765940
H         9.80106069005394    7.76942441946058    4.06190206195413
H         8.78715312936220    8.58906985774508    5.25657086485369
C         7.80121826075073    6.48834373769095    2.68985954605917
H         7.45192186091822    7.22386106527606    1.96854850528371
H         7.17464393339791    5.60127094755529    2.60697007614917
H         8.82842703378248    6.23946353784133    2.43126135296323
C         6.35586508014523    7.73824886436745    4.27379185706607
H         6.23837526436713    8.51220657300814    3.51864410594327
H         6.26030416209312    8.20970532095047    5.24921492099023
H         5.55308557680083    7.01606338953980    4.13975307387297
C        10.88674671276004    4.02736028756241    6.52340877793432
H        11.05156756087399    3.55670827696788    7.50388630486632
C        13.17033210855864    3.68492898615885    6.19259845426557
H        13.18706057910424    3.60984286947732    7.29084914062443
H        13.92558630149296    4.41246160462206    5.87864258916011
C        13.51919941153241    2.31112094553453    5.58894899231789
H        13.33707646552926    2.34980807192927    4.51283088066267
H        12.86752358188614    1.55086933505985    6.02824284034878
C        14.96312340980050    1.98857369182098    5.84801441920009
C        15.93509179754239    2.36663728367245    4.92992966040660
H        15.64006165212009    2.85927623499574    4.01403693577085
C        17.27210750890748    2.11252882188083    5.17744188670945
H        18.01693344191654    2.41053040354888    4.45416082419457
C        17.65369408529202    1.47686580985064    6.34704627844971
H        18.69707810024393    1.27813374973871    6.54111783620243
C        16.69165205869902    1.09548424697990    7.26635420340010
H        16.98330688486707    0.59737521514965    8.17921825789000
C        15.35450509297658    1.35209065781058    7.01848366680648
H        14.60703649362863    1.05033702515485    7.73868588762645

