52
CSD_code = FEXWEM | q = 0 | S = 0 | Stoichiometry = C23H19N5O4Zn | MND = 5
Zn        5.15059497953193    3.00689203602107    1.85575291139470
N         5.61834027646216    3.71983700693616    3.81166901334046
N         5.05904635041238    5.08379758675682    1.67109182984797
N         4.59636845223777    3.31893686322382   -0.17934554561606
C         5.96444133761426    3.24801937603504    5.04001804157823
C         6.08635410460948    1.94093842812428    5.50287527152506
H         5.89259842200939    1.11852433290417    4.83366838588862
C         6.45784205557927    1.77235669484982    6.81861207364960
H         6.56444695879230    0.77563461485384    7.21930705883305
C         6.70495882754938    2.86282559059273    7.66061307893435
H         6.99447080931396    2.67763652780532    8.68422903460774
C         6.59005741601647    4.16595195800213    7.22000622995137
H         6.78307274666321    5.00279150033227    7.87409167128026
C         6.21544468244562    4.34671821823451    5.89698887314146
N         6.00276278937986    5.46296499718399    5.12705456198875
H         6.10683817566662    6.41915765723345    5.42204596005739
C         5.64778112316705    5.03009205179966    3.88419727129829
C         5.33753069086792    5.83507290964873    2.72147724077374
C         5.34230980533361    7.22697308057078    2.63008782590496
H         5.57740303103493    7.84890745592691    3.48002717515681
C         5.03827429961599    7.79847141609415    1.40385466543930
H         5.03425006119434    8.87337948426513    1.29691379924808
C         4.74746206295558    6.99402165393159    0.31230371015157
H         4.51651467247290    7.43437259360010   -0.64539040077272
C         4.76864504644890    5.61153329817972    0.49520008252926
C         4.53440945862429    4.58948082550985   -0.50306377869642
N         4.25847537846953    4.76436965334828   -1.82637501789907
H         4.18295047954992    5.64223787408046   -2.31204523320667
C         4.14331101147203    3.51486851425854   -2.38258785953931
C         3.87777851145628    3.07153452072609   -3.66964558062620
H         3.71227215948004    3.76072458597617   -4.48389508565947
C         3.83705938263714    1.70495776130748   -3.85992131313233
H         3.63425754976416    1.31742216627123   -4.84714182374108
C         4.05244462585479    0.80462788200922   -2.80995528614732
H         4.01034290659107   -0.25346182129068   -3.01987759994229
C         4.31607811838204    1.23440696884047   -1.52804368375720
H         4.48844301524264    0.56241227537410   -0.70308819846056
C         4.36071156024704    2.60944258706424   -1.31606412312821
O         2.99998643958471    3.26054758144061    2.39154237427850
O         4.10716998312341    1.37961435202869    2.28861468391899
C         3.05097497933053    2.02501360575622    2.50122451505032
C         1.80455913561779    1.24700293098122    2.89068904100148
H         2.08020982970223    0.25703467889680    3.23939319223342
H         1.16625462766282    1.15460518878932    2.01472609650531
H         1.25893060531813    1.78656046463048    3.65953059164592
O         6.92955019024606    2.37156314229058    1.45633498175591
O         7.44119588915491    4.49124318208301    1.08271532649417
C         7.73036073913037    3.29399036830990    1.13525862015747
C         9.15632998586480    2.84565369156860    0.81144808697688
H         9.13442387434960    1.86782522594893    0.34045260331617
H         9.71238579765220    2.77229144523734    1.74384415144022
H         9.64002458815702    3.57422301542870    0.16678049900586

