33
CSD_code = FEXXEM | q = 0 | S = 0 | Stoichiometry = C16H12Cl2N2Pt | MND = 4
Pt        3.28587317421686    1.18730884940377   10.98780134835909
Cl        3.94661955893854   -0.48878368731658   12.29715984370789
Cl        3.95279145823051   -0.01911636213782    9.22476894669434
N         2.79538701763990    2.40209251777528   12.51073053016070
C         2.84204110847015    2.14096340003259   13.81487185731137
H         3.11883518388778    1.12932153961729   14.08263155390365
C         2.56342805840804    3.09979826567369   14.76976474114161
H         2.61544823494957    2.84525739037020   15.81553481198504
C         2.21992075591606    4.38773323768171   14.36340406471537
H         2.00004463551710    5.15302966051182   15.09142592638106
C         2.16744142542092    4.66607860528090   13.01431052999304
H         1.90798044402093    5.64778357284815   12.65054724952523
C         2.46112185747673    3.65149221019598   12.09712049688051
C         2.41164882996306    3.80667971364702   10.67758239158971
H         2.10926251540773    4.74850932766752   10.23045003909819
N         2.68111947262791    2.76225464154543    9.94923856719090
C         2.62736392027411    2.83935418272371    8.55668290852983
C         3.24279221513862    3.86381214291540    7.87328394295522
H         3.79747619556190    4.62004258992770    8.41173505704920
C         3.22446324412614    3.90010002608997    6.46697156079125
C         3.87219864661395    4.92142117545154    5.73968544475075
H         4.39493626300472    5.69538022275546    6.28332649423510
C         3.84099882748425    4.92997282674961    4.37349018386400
H         4.34081399649878    5.71272740717619    3.82224964068192
C         3.16314325888460    3.91981868906475    3.67305272817669
H         3.15227206301010    3.94115385741646    2.59337848658692
C         2.52545534383877    2.91705131288952    4.35001834379429
H         2.00493321074137    2.13623109055813    3.81489671887661
C         2.53817230648464    2.87791992772651    5.75841895418419
C         1.89655992317477    1.85354891147163    6.48887504451994
H         1.37321625238112    1.07991649986072    5.94737421996695
C         1.94196872294446    1.82426518863463    7.85045322628878
H         1.45397187874921    1.04288106581243    8.41386414610238

