57
CSD_code = FEXYIT | q = 0 | S = 0 | Stoichiometry = C27H27ClIrN | MND = 8
Ir        4.35231805906502    9.20048282602809   10.43819968388079
Cl        2.30317870061230    9.45757388284554    9.32629970146478
N         3.85125700197737   10.72992055087480   11.65858015658051
C         3.31107033244206    8.24532791498979   11.89133502562671
C         3.00114801785793    6.91439901399970   11.96131165311244
H         3.30373409565184    6.23526045400790   11.17775395699968
C         2.26691256066605    6.37845909642747   13.04320044448121
C         1.96810960912978    5.00268926496021   13.12534849134613
H         2.31494297104913    4.34985042920038   12.33707048707246
C         1.25177019049773    4.50084977060781   14.17565573974663
H         1.02679977024944    3.44541507156611   14.22705893099372
C         0.79809102770646    5.35059327764874   15.19849186118649
H         0.23268671355058    4.93559783028761   16.01998546299789
C         1.06849145039713    6.68807001195981   15.15081806027281
H         0.72168511607661    7.34866670554567   15.93282332501552
C         1.80678338705785    7.23941913699240   14.07949787795619
C         2.09231672065080    8.60964588501039   13.99601824228317
H         1.72448550196396    9.27901454542780   14.76146612526324
C         2.82762421318416    9.10185243423882   12.93588932292968
C         3.16220982021313   10.47344237425922   12.72888757737130
H         2.83618842748790   11.26651888703823   13.39515937195643
C         4.25345070167360   12.03787094103684   11.36109988064308
C         4.92310044632777   12.81072145420351   12.30822844030620
H         5.12907443999446   12.39426483344534   13.28417505840713
C         5.34271262162173   14.08775080129763   11.98351860452573
H         5.87092934346840   14.67903513493506   12.71705463281052
C         5.08836991696546   14.60729235420548   10.72501677466677
H         5.41656345922787   15.60547477179732   10.47714294000156
C         4.41398127276806   13.84265223304993    9.78553713801667
H         4.20851979115672   14.24894874321114    8.80636565440756
C         4.00298873394131   12.56052473710972   10.09344254593232
H         3.46913184202553   11.95461557883471    9.37674829663649
C         6.56403025342304    9.04109336246994   10.55215658680771
C         6.04655530551576    7.75551704886963   10.19252217830143
C         5.35605139267559    7.91357731840594    8.95704031411136
C         5.62399709962361    9.25766258125840    8.46607603763995
C         6.36956304756131    9.93524822800434    9.42857935994496
C         7.48326054342731    9.30948739619146   11.70183658969018
H         7.23941826803040    8.67400870170386   12.55042988165932
H         7.42277873757518   10.34933404459834   12.01833270634480
H         8.51564152765672    9.10649936471882   11.40910054112290
C         6.31799297477680    6.48113256920503   10.92921419888048
H         7.36058695891969    6.19400149725636   10.78091974704198
H         5.68879782479616    5.67493904097507   10.56314945117471
H         6.14464964072543    6.59227709132464   11.99787117174980
C         4.77643010904620    6.82988198280820    8.10114108364714
H         5.49612689807782    6.53162176871774    7.33596603540038
H         3.87468985012879    7.18082100731826    7.60337937147187
H         4.52056409799947    5.95413638842946    8.69246651573283
C         5.19721078893493    9.74074488845828    7.11979304587954
H         5.65438491497303    9.13022353962443    6.33988846579794
H         5.48533447094490   10.77744527360472    6.96365606536232
H         4.11460828094670    9.66307132512535    7.01709414672902
C         6.98411581108488   11.29268976935081    9.31521391998281
H         8.02527983150254   11.20071533537007    8.99794447589158
H         6.97025383537728   11.81618134895935   10.26994575447349
H         6.45805127962643   11.90608818020787    8.58750089025776

