37
CSD_code = FEYBUJ | q = 0 | S = 0 | Stoichiometry = C16H16Br2N2Ni | MND = 4
Br        1.51935326244641    2.47890751040272    3.29843002407596
Br        1.42196287307787    0.34964771056054    5.68482857168879
Ni        2.98198037797272    1.42139856993344    4.56043086772389
N         4.52845019455619    1.53449221547695    3.34953318988757
N         4.41467611807947    1.33291892343959    5.90950033479446
C         5.66855365228984    1.43813830012303    3.95632831621700
C         6.98630201415207    1.25745940017735    3.27306901854392
H         6.84466160071637    0.92897907152533    2.24544905657783
H         7.58687232259914    0.52213956838850    3.80515295188133
H         7.54022339359607    2.19644394295343    3.25898594901688
C         5.60230402576355    1.45874380171462    5.40837778912386
C         4.17124236961539    1.31974661635506    7.28719257000504
C         4.77678615021446    0.38696004889500    8.12607971615821
H         5.45412811343669   -0.34625676269096    7.71313883236529
C         4.45906516806455    0.36788532171019    9.47103283889017
H         4.91941455333783   -0.36741672566881   10.11371754123508
C         3.55465598936589    1.27840946999696    9.99049701578592
H         3.31084500987304    1.25725847194520   11.04142624369235
C         2.94750011165135    2.20370372277581    9.15577568623930
H         2.23029340602754    2.90543403256852    9.55229090966009
C         3.24225742164767    2.22051071051298    7.80827695399895
H         2.75865043377283    2.92733697322236    7.14413433348057
C         6.84812341562016    1.66838868489262    6.20835888807648
H         6.60608954081311    1.98596843644915    7.22054475122298
H         7.47411258612064    2.42287329766611    5.73563476372361
H         7.42343067604573    0.74417994393190    6.26788318706037
C         4.40847779762347    1.52961465196814    1.95556259073442
C         5.06765959261162    2.46404257954473    1.16020381407547
H         5.68891653982938    3.21817093257678    1.62081805174077
C         4.87325131312884    2.45644457728828   -0.20820588151962
H         5.37480930456685    3.19220409614219   -0.81875255401661
C         4.03947800617899    1.51826850181184   -0.79260902017866
H         3.89314444725325    1.51801542527135   -1.86168361595832
C         3.37714091292323    0.59260867729717   -0.00134849127818
H         2.71344805193175   -0.13037917507105   -0.44959493100612
C         3.54827911508808    0.60207315879871    1.36734447731861
H         3.02036013794807   -0.10511468290324    1.99679525891618

