61
CSD_code = FEYCAQ | q = 0 | S = 0 | Stoichiometry = C24H32Br2N2Ni | MND = 4
Br        3.53997475316656   12.11262283953091    9.20318865020922
Br        3.34033693096464   14.57054567700324    7.09176254164705
Ni        4.95640633572147   13.36539675211399    8.02967056762840
N         6.45550639466098   12.13037387687863    8.09997747887027
C         6.29747474834194   10.73512446549338    8.18567642117539
C         5.67686101243250   10.07551181793083    7.11608171819684
C         5.20310072786626   10.83976889088666    5.91051914198065
H         4.36241960697636   10.30838287037346    5.46180870238271
H         4.83346251525283   11.83792997385367    6.21695397281063
C         6.30305449137125   11.01456721861729    4.86356588174528
H         7.13876568546507   11.58705310718400    5.26214066205011
H         5.91326713128271   11.53905451306703    3.99431634803332
H         6.67661170422366   10.04342335147732    4.54445413961973
C         5.49847499028365    8.70482889614453    7.19402906306821
H         5.02849623847077    8.18975477508353    6.36957576062488
C         5.88893631709587    8.00361295609534    8.32047818400921
H         5.73353101943497    6.93700065949919    8.37410457735482
C         6.44182796146412    8.67655604246799    9.39246287574277
H         6.69603843834945    8.13610392824995   10.29140311821275
C         6.65865161675022   10.04665300496837    9.34788896855054
C         7.19779157230246   10.75995698523995   10.55932759786939
H         7.24011064029005   11.83635996488259   10.38113263031346
H         6.49668675359587   10.59838851894287   11.38242202899938
C         7.59597985600927   12.68035576592299    7.84769760978132
C         8.87096799874300   11.93036992362732    7.63947177811136
H         9.54535036806228   12.10237881175886    8.47863538148277
H         9.37145443091639   12.27533843314410    6.73548273769187
H         8.67716813363169   10.86270288050415    7.55921333506383
C         8.57967299611498   10.25835983729424   10.97764999570601
H         8.54045437370650    9.21084502802660   11.26338773621040
H         8.94238237556719   10.82967808959611   11.82929885422504
H         9.29598090317937   10.35766180001385   10.16454706959138
N         6.38915546741084   14.65079098506744    7.72730821231804
C         6.17883653325568   16.04130491314308    7.70550639855578
C         6.32359882916988   16.77252429537710    6.52255736124174
C         6.67816045997723   16.11103963689041    5.21731175872371
H         5.84030326326410   16.25576226922000    4.53011285111756
H         6.79700012467205   15.03454441544922    5.35507053631756
C         7.94512578259652   16.68590051396008    4.58434633203037
H         8.79385939271213   16.60414185953810    5.26049326324869
H         8.18075171379742   16.14956750855790    3.66779117187134
H         7.81259502422738   17.73574691259469    4.33831799777689
C         6.06089744430796   18.13499147487757    6.55810425580844
H         6.14693853169578   18.70809512133597    5.64769409809402
C         5.67277991012867   18.75988402718345    7.72702590129335
H         5.47871862255655   19.82148560066200    7.73355535188230
C         5.49646398743014   18.01647999835472    8.88002580232271
H         5.15592210440313   18.49322588162908    9.78703678690834
C         5.72584277742898   16.65130535809696    8.88374557888350
C         5.48463427807872   15.84004454043130   10.12698713768303
H         5.08160236482153   14.84416526381565    9.85551966750366
H         4.72846476222649   16.33859950159199   10.73536114708148
C         7.56982262070681   14.13060303330229    7.76296163407416
C         8.84194212664292   14.91351564980461    7.74616723958781
H         9.50696148464965   14.57641299873043    8.54030228734750
H         9.35658940687913   14.76633529628818    6.79637652839236
H         8.63812657005137   15.97477209380285    7.87332864688498
C         6.75470753056001   15.65412168120773   10.95716838116180
H         7.16276739176307   16.62170761718735   11.24328866873587
H         6.53260039601113   15.09033326424339   11.86029163264141
H         7.51683207692527   15.11533663179077   10.39661784154279

