61
CSD_code = FEYFOH | q = 0 | S = 0 | Stoichiometry = C29H22AuF5N4 | MND = 2
C        -0.35890121655519    5.52252455107812    9.06379768028696
C         2.28692910114521    7.57079059332532    4.89522089388092
C        -0.42606747838242    9.11726885338041    9.49579593030382
C        -0.07205191273189    5.06452085314473    5.81164073604131
H        -0.90854442237565    4.39826260693399    5.76324185794885
C         0.42889018650199    5.92073099411601    4.88876720148415
H         0.11837207265343    6.13471701416447    3.88692442756938
C         1.69063002544876    6.07849107976017    6.71928896901258
C         1.78406741601730    8.87138821020311    4.90833943235892
C         4.73070729895989    8.90604595852463    9.32976914207623
C         3.54289931663847    7.27712423271121    4.36859991972831
C         2.57236494752572    9.88343224516523    4.38476521439799
H         2.20060250815009   10.89752785971416    4.39630894374565
C         0.45040964046698    4.57597458606879    8.19870774781920
H         1.40734761166548    4.38532174704514    8.69729889530939
H        -0.08276089349512    3.63244410838664    8.06241701747667
C         4.29807687151007    8.31840864807592    3.85228154323129
H         5.27563014581561    8.10597144105521    3.44473951455169
C         4.82972045109356    6.87003522322813   10.46372992681681
C         3.83066856689519    9.62494275368586    3.85854225501568
C        -1.75026951555740    7.30617073251270   10.56219829770466
H        -2.27283377957789    8.06443964664265   11.12104912003230
C        -1.31957643583816    5.04274204028776    9.94471468402220
H        -1.50717749515489    3.98341857716591   10.03005281361450
C        -0.75801631626813    7.69424234729093    9.65972363241838
C         5.60007841653865    9.49097673448309   10.24087876859558
C         4.06099463273578    5.87187331821706    4.38118003614699
H         4.28028605174581    5.56668930112490    5.40473354452263
H         4.97220257928791    5.79498591620055    3.79488311023319
H         3.32375740950650    5.17965506793428    3.97582806434442
C        -2.02723636663302    5.96044856342658   10.70687263934900
H        -2.78509659354961    5.62497386186082   11.39958427787145
C         4.30865258397491    7.58412983492509    9.39232533828007
C        -1.07357171936319   11.27752453969504    9.81551074803459
H        -1.84382858322266   11.94090170819649   10.18859864028381
C         0.77955627765789    9.51988481353245    8.92475687277664
H         1.49593922148378    8.77764729311163    8.60537829195089
C         4.67795382300486   10.74301530491967    3.33657990154766
H         4.06571598159724   11.50723362964901    2.86342590398496
H         5.40871419820424   10.37809831916877    2.61929754706052
H         5.21625350632069   11.20785103172188    4.16263355716640
C         0.09347412717191   11.77834635938520    9.25368318518429
H         0.25381514518325   12.84272229431423    9.17946997650867
C         1.04180003456772   10.87307468279422    8.80369976486471
H         1.97284242684707   11.20658615892263    8.37010051610563
C         0.42514320080195    9.15902721376219    5.47027675877093
H        -0.35061648436367    8.84732530890471    4.76962314211535
H         0.30776093997460   10.22325632917651    5.65500936344243
H         0.26683547073903    8.62616352991553    6.40632505464409
C         6.09471852325820    8.72912013137516   11.29086267468196
C         5.70341141740496    7.40142789349626   11.40373504805782
N        -1.33125136116417    9.99079642935993    9.93751851280785
N         0.72018265892781    5.17328808939052    6.92186523192566
N         1.50665945455998    6.53147402619894    5.46873373994027
N        -0.08602062673411    6.80969204470576    8.92717801903715
F         4.27059588613755    9.69008074450575    8.32475136093186
F         5.96406931575921   10.78063580803677   10.11842067027073
F         4.46987788471051    5.57363912782749   10.61334323054463
F         6.93750338802750    9.26918173303984   12.18572208223582
F         6.17101209397810    6.65148163846413   12.41706856587912
Au        3.01479839033597    6.79365431458119    8.05143006303769

