51
CSD_code = FEYGEW | q = 0 | S = 0 | Stoichiometry = C18H24Cl2N4RuS2 | MND = 6
Ru       -1.51025309077998   -0.00074546728926    6.87569202931464
Cl       -2.64758947525117    1.54120136966689    8.33015672547277
S        -0.70727009942335    1.86611392094956    5.55233234260790
N         0.11196897031674    0.07288374855181    8.08603063401693
N         0.01623903887990    0.72949785937378    9.25429237738859
H        -0.86674653757393    1.21008348451808    9.45118161510848
C         1.31435992363004   -0.45814910813319    8.00858411346696
H         1.61597332242152   -1.04518093478626    7.16184895103327
C         2.05504951733980   -0.13978994614831    9.16962597374622
C         3.34634213111109   -0.40808830109054    9.63382629239072
H         4.02842188054590   -1.00085714629893    9.04394546816511
C         3.70954950303160    0.10380564677981   10.85540033067914
H         4.69972191786830   -0.08621518800806   11.24197652027419
C         2.82331935382627    0.87369005029526   11.62355837980527
H         3.15783740047177    1.25371456362929   12.57730608450085
C         1.54713534375948    1.15401254191460   11.19402899566557
H         0.86323774015135    1.74515100427706   11.78246415143207
C         1.16788275784275    0.63840523479334    9.95704866802717
C        -0.24213959922000    3.17572446157854    6.72000859332588
H         0.55955096615982    2.82936361966811    7.36683470504350
H        -1.12688422340055    3.40207342749170    7.30918794277354
H         0.07028612509400    4.04833884606550    6.15303708607123
C         0.94758439428076    1.44250539126202    4.94031921209987
H         1.31528295526498    2.27063950348318    4.34084166955406
H         0.84111528463643    0.54887999956067    4.33181018820299
H         1.61089369776938    1.24302461129737    5.77747708912329
Cl       -0.37477304654040   -1.54458396549550    5.42264094927742
S        -2.31376279341950   -1.86609528064737    8.20010890744870
N        -3.13269346446199   -0.07208072016307    5.66556989406287
N        -3.03724700986307   -0.72919797560071    4.49759740528070
H        -2.15431057460134   -1.20980970353004    4.30060285773240
C        -4.33527533383499    0.45850657977345    5.74335741127895
H        -4.63690613065046    1.04532937914814    6.59023876465307
C        -5.07608887382715    0.13998959336757    4.58241636049065
C        -6.36746872608268    0.40807462011352    4.11833216758224
H        -7.04954698828732    1.00083703576357    4.70821238858525
C        -6.73068969860871   -0.10383196639829    2.89675984501387
H        -7.72086039354585    0.08619850753819    2.51018772065054
C        -5.84446777554309   -0.87369425577708    2.12856996840327
H        -6.17898183937118   -1.25368777252265    1.17480599933905
C        -4.56828022166191   -1.15400615511207    2.55807981870501
H        -3.88435904310098   -1.74508805741289    1.96960362405841
C        -4.18896536560577   -0.63823892528119    3.79497109760278
C        -2.77873265792434   -3.17542591260239    7.03202910139867
H        -3.58040883269106   -2.82911132112721    6.38515795341418
H        -1.89389854755616   -3.40161630739749    6.44291143394389
H        -3.09117315846182   -4.04811874758935    7.59887031705064
C        -3.96868935928389   -1.44236544282045    8.81183695405547
H        -4.33643736292523   -2.27042270673845    9.41138773185926
H        -3.86219307689270   -0.54864847679584    9.42021928814249
H        -4.63195892401364   -1.24299521609376    7.97461590068058

