116
CSD_code = FEYHIC | q = 0 | S = 0 | Stoichiometry = C50H35F20NO7PRhS | MND = 6
C        12.94782725963496   13.49387342166199    9.62196110560518
H        12.90165878840688   14.54819445718202    9.89130669178085
C        12.07134768831148   13.04936508714689    8.65326668475093
H        11.35474251083297   13.76488311946131    8.25697050290425
C        12.63865230704636   11.00576835885922   10.77951504012306
H        12.60959385419573   10.57706946503007   11.77499926531023
C        11.57875640394289   10.63853769513279    9.92215747874632
H        10.85297510933298    9.93578170669326   10.33042402508210
C        11.66494794334029   10.57629270878838    8.41478282820177
H        10.64848227168422   10.48582334596242    8.02562758451125
H        12.20788516362357    9.67207100121845    8.12050992759746
C        12.32697654518601   11.82418565112964    7.80769221277448
H        13.40252584549491   11.67473337842052    7.70968176531968
H        11.92492239656887   11.99095376493260    6.80760015072847
C        14.04509772765265   11.30730738750396   10.29370588832786
H        14.75135960603779   11.03418475057130   11.07828637683557
H        14.25670040834461   10.67118268816889    9.43280792860644
C        14.24846426005163   12.79133692633486    9.93360961208056
H        14.74371923127288   13.30496044978733   10.75540155264465
H        14.90822343197844   12.88311806131378    9.06472139784220
C        10.33258182207587   12.74246505736012   14.60436471129901
C        10.50821678431667   11.27166950473291   15.09860752728473
H        11.26744265145191   10.76098708626404   14.50654450671090
C         9.16954726220765   10.52228962119669   14.98101300327673
H         8.34853553392466   11.23748084628046   15.02617836205904
C         9.09926406401790    9.70979726687880   13.65523584911439
C        10.06526015577319   10.16295810423072   17.08027682191476
C         9.31097986550886   10.74342275880654   18.27757080601734
H         8.58266662955823   11.47493255895781   17.93680283499470
H        10.01681148916129   11.22258787922901   18.94856199370050
H         8.79213289215543    9.94526298935312   18.79826856025669
C        10.98587648435403    9.01670235532210   17.50032816072336
H        10.38534242336849    8.18370901439165   17.85172901335587
H        11.64572128992088    9.35566464347016   18.29208764896557
H        11.58601887237512    8.69677028254469   16.65249416517549
C         8.80044130572331   16.20861844005127   10.92273341975601
C         9.08744688240059   17.14662148146649   11.89362340345483
H        10.07096992591838   17.16878684872546   12.33036711532568
C         8.11339009094455   18.05004083679468   12.28135338314393
H         8.33605821412617   18.78194325214945   13.04386145166156
C         6.85256075620163   18.03250633249340   11.69409503402210
C         6.59027457908755   17.09714914177156   10.69893185876865
H         5.62117637690946   17.08386623640805   10.22130443884335
C         7.56152517574279   16.19079930140799   10.31051663545158
H         7.37875246193506   15.46820841359757    9.52998153021266
C         5.79461334918764   18.99623988396925   12.13643170682456
H         5.06947999313354   19.16878214124985   11.34529174086883
H         6.23452359768996   19.94668341217881   12.42821361106813
H         5.26451949268743   18.59258432843892   12.99945870441394
C        11.60119745846652   13.46094156769599   14.14844230008760
C        11.49671139089135   14.84046944705008   13.95009605633587
C        12.56098228509904   15.61998743365772   13.51151665687074
C        13.77642065530726   15.02170858316675   13.21413431398220
C        13.90583359601843   13.65133648288046   13.39670120581391
C        12.83143623331716   12.88612901215959   13.84435082600185
C         9.75226926816432   13.51288846227428   15.79160766730820
C         8.40391622308835   13.80657096223080   15.95935297080642
C         7.92998656571570   14.45934185524972   17.09793004040126
C         8.80289244842644   14.81701972790525   18.11675403014445
C        10.15566343232967   14.52405210604335   17.97479709340753
C        10.61249043146778   13.88697249634822   16.82699998107046
C         9.72270914333313    8.34030711113827   13.95113155724697
C        11.05051114322955    8.02405188041405   13.68566182017889
C        11.59331597324675    6.78265211204768   14.02004039976764
C        10.81601912147486    5.82376917058997   14.65554715031081
C         9.48932874889734    6.12449697939093   14.94667966686116
C         8.96289042375018    7.36231406310672   14.59596605581531
C         7.69647193059172    9.46406466319124   13.10239410898017
C         7.63499136908951    8.65143213296649   11.96640674174892
C         6.44114777255887    8.30931716485182   11.34468626672452
C         5.23959980759365    8.77938477050897   11.86138883884542
C         5.26973003400847    9.57519558761472   12.99995128524778
C         6.47806883259942    9.90562796647336   13.61204366282368
C         7.90389880748323   11.39386296242083   10.27859845093927
H         8.15458046111418   10.33378833741623   10.21942910642385
H         8.56733458934437   11.94805244751829    9.60676938028903
C         6.43936000787603   11.68587304702782    9.92293258253765
H         6.38867228906874   12.21826576928770    8.97551707553473
H         5.85579419091416   10.77079629578065    9.82444882957585
C         5.91791819608722   12.56073316732848   11.07073499517389
H         5.28247703754866   11.98217238148709   11.74057639335260
H         5.34502321103323   13.41309652814332   10.71293812979076
C         7.18052483681722   13.01235231868115   11.79938827937068
H         7.61082902391098   13.88998585833214   11.31312991523415
H         7.00572410971313   13.22840460701821   12.84865895807145
F         7.49429496584260   13.47479203032799   15.04576932356137
F         6.62984214115512   14.72779412260249   17.20620746640723
F         8.35466843604859   15.42762989365029   19.20958413565073
F        11.01453924208302   14.85292560580312   18.93842534674391
F        11.92520724578863   13.66135899799273   16.73690103763806
F        10.36117227972552   15.47355153417843   14.25310033880040
F        12.40615737723018   16.93588447918257   13.37625091506528
F        14.80705896051085   15.74390644178010   12.78214356952172
F        15.07610001583181   13.05196211103465   13.16180104902763
F        13.08476006157131   11.58599744185515   14.01435876800930
F         8.76496823620654    8.15163834970308   11.44721428769586
F         6.45232123776475    7.53626376582736   10.25853855993458
F         4.08396912361788    8.47049073337172   11.27947160205185
F         4.13017545688178   10.02919244444415   13.52010400997996
F         6.38249234998493   10.65529680129118   14.70769927632396
F         7.68052536350811    7.58054590082256   14.89866477919240
F         8.72084665715377    5.22905055061699   15.56455873131244
F        11.33019797727996    4.64349001052671   14.98632483239613
F        12.86959305147332    6.52901578016796   13.73698256918573
F        11.87645424605696    8.89376045682087   13.11233598456417
N         8.07068859069356   11.86007081895823   11.66169960981113
O        10.76023176854263   14.58256817999981   11.61026207579577
O         9.35402230717567   13.92569199665986    9.76600972109835
O        10.92626371430659   15.77983678848891    9.49212179722145
O         9.86825696141236   10.36800629841981   12.66386457803951
O         9.40299273521584   12.72761065930140   13.53599330201474
O         9.14918849950743    9.68166824376958   16.10484723043626
O        10.82223497632665   11.19847642224022   16.46269397445664
P         9.67844690848899   11.92983472938200   12.13881275093054
Rh       11.26174624873417   12.57271475503270   10.62487235295807
S        10.05567263955959   15.05770475147817   10.38502721256438

