48
CSD_code = FEYJUR | q = 0 | S = 0 | Stoichiometry = C19H23Br2N3Pd | MND = 4
Pd        1.40730634907746   14.42636710159222    7.16677155279515
Br        3.85216312074329   14.42633440672312    7.25771315247592
Br       -1.02812728987402   14.43978722360139    7.09884027772768
N         1.66121240260836   11.48563371911628    7.28615859619142
N         1.19308778477533   12.13812116379710    5.28257222962436
N         1.39145683128160   16.30882799321199    7.85129802473030
C         1.39931381709861   12.56951334767052    6.53840915816979
C         1.35546381240409   10.78133020424194    5.23628443820993
H         1.23081541297676   10.21840956227343    4.33410725906354
C         1.64610078394451   10.35306960627810    6.49729272542151
C         1.92483321081154   11.55179850434163    8.70128302609454
H         2.28831791864212   12.56171485514761    8.94388754492668
H         2.68534412965938   10.82144999513030    8.97544387115250
H         1.01224343929366   11.36298303352318    9.27359787586086
C         0.74514702076045   12.96405637305671    4.18271585862654
H        -0.27170499425588   13.31232169785971    4.40713265653068
H         0.71255095652199   12.33806841265443    3.28736684848704
C         1.64984456160607   14.18072552917623    3.92945336050150
H         1.69282044708786   14.78960887403005    4.86396947038149
C         3.06347827379227   13.73787319041370    3.56461275472653
H         3.51149598853193   13.16686929360994    4.37523596033217
H         3.69474511322918   14.60352279091261    3.38221038339852
H         3.05048535406711   13.12357142438090    2.66575002520489
C         1.03607529292867   15.04048914425921    2.82854876371455
H         1.64951626200974   15.92055520644094    2.65217759382587
H         0.03571176570201   15.36531676425829    3.10656773020225
H         0.97091296054764   14.47853124262302    1.89875268073287
C         1.91197614640842    8.99451175358148    6.95734859733029
C         2.73317768421697    8.16874464096967    6.19070895303715
H         3.17720818450338    8.55769905965714    5.28667606406421
C         2.99117109873253    6.87201526037718    6.59169023379296
H         3.63294257559200    6.24323066582090    5.99273549686833
C         2.43246780274530    6.38007079885451    7.76008881140019
H         2.63711124011669    5.36768474237849    8.07421211233634
C         1.60619045835506    7.18963380949057    8.52063587444775
H         1.15859401591147    6.80747058573060    9.42607586355278
C         1.34438502232690    8.48834335497528    8.12426527790122
H         0.67392711260206    9.09880191129343    8.70922585494494
C         1.58009687953076   16.50180633352830    9.15386141309200
H         1.77974067089419   15.61300490772626    9.75402260615093
C         1.53230415283031   17.75875309187229    9.72887564194514
H         1.68807334897169   17.87313182943002   10.78978863836313
C         1.28339086500698   18.85487677065480    8.91692335762935
H         1.24043828338237   19.84968290220731    9.33343066571145
C         1.08812603685218   18.64657738252039    7.56044349702415
H         0.88918370220504   19.46896713185470    6.89190852921349
C         1.14740064719977   17.35491349463966    7.06825420026033
H         0.98698334562364   17.14672891213127    6.01217449179895

