49
CSD_code = FEYKAY | q = 0 | S = 0 | Stoichiometry = C22H21Br2N3Pd | MND = 4
Pd        1.55267830032897   10.90681167107553    7.80538391904392
Br        0.25003007807782    8.85144503607092    7.80988158829237
Br        2.82453826324448   12.97684261872449    7.90499993593651
N         4.06974733115687    9.64004632034828    6.92720497760640
N         3.80496543614026    9.43538603526919    9.05565704248636
N        -0.14216683714955   11.95964934139181    7.66875248584783
C         3.23774919673416    9.91693569196051    7.93988894419596
C         3.83220318879968   10.02628357986445    5.55201468597907
H         4.62990537771769   10.70161015140331    5.22567621731296
H         2.86938400782262   10.57972303391641    5.53849820296551
C         3.75444055040048    8.81246113652687    4.66348417038741
C         2.70949991332407    7.91187184761946    4.82993135133848
H         1.94880690887536    8.10347888843734    5.57364225136932
C         2.63987880471996    6.77493391483371    4.04630983181262
H         1.82449049324972    6.08114615844890    4.18297212974568
C         3.61139597302078    6.53164230062296    3.08915680255229
H         3.55627906559505    5.64507907496177    2.47506184171013
C         4.65283385887404    7.42747380419154    2.91829735822092
H         5.41099972975480    7.24199109395530    2.17176990470204
C         4.72732635596580    8.56347403882213    3.70608037639830
H         5.54153999266716    9.26188684445679    3.57146249369154
C         5.15454028829471    8.95203137543680    7.39677199337307
H         5.94847524649995    8.62786330577053    6.75627214345839
C         5.00315029972502    8.82203991983585    8.74570126652386
C         5.88767549231279    8.16679212788744    9.70245946751732
C         6.46314196703335    6.94210659459552    9.36648160361750
H         6.22544831811503    6.49002471031680    8.41515113945624
C         7.31495941912925    6.30535422258661   10.24854631504986
H         7.75125090526195    5.35466338764225    9.98060577529457
C         7.60623718384057    6.88125716465438   11.47451492158251
H         8.26950013666521    6.38125126041581   12.16411713948941
C         7.04870439586970    8.10328011849314   11.81007159506719
H         7.28238350938092    8.56230780407068   12.75918515151923
C         6.19543695704147    8.74546889046695   10.93162297977783
H         5.79219206680300    9.71229698838673   11.19027031992083
C         3.18184898558643    9.55271470052172   10.34938930768226
H         3.54845521132869   10.43801542316963   10.87680301322695
H         3.38086385066606    8.66329339944106   10.94605807315434
H         2.09530480110023    9.65678847204805   10.20173499098449
C        -0.78003831070882   12.32416048970337    8.77660403050673
H        -0.34077724182642   11.99647017797261    9.71949413706372
C        -1.93847873201131   13.07925612795132    8.74483695613126
H        -2.42803647597513   13.35655609142932    9.66469252690343
C        -2.44817700992070   13.46693531907190    7.51492371836556
H        -3.34972864313723   14.05719993501769    7.45470531285103
C        -1.77746635594351   13.08223802316796    6.36407140586827
H        -2.13848542084595   13.36184126577990    5.38724763743916
C        -0.62475707114262   12.32712872728497    6.48633427787116
H        -0.06434976246546   12.00129139397333    5.61000628870372

