39
CSD_code = FEYMOL | q = 0 | S = 0 | Stoichiometry = C14H16N2O6Ru | MND = 6
Ru        5.85885963732506    4.49624061506167   -0.00017399405559
O         4.91581972947296    5.23025230103806    1.05777020827889
O         5.59000107714242    2.64384590224772    1.06445594421650
O         7.57495350728427    2.95197128652980    2.00125869671486
N         4.18783814730779    3.68913148435509   -0.95875908974448
C         6.55819360684413    2.30141141957217    1.82792026619040
C         6.32300840184897    0.97666395459146    2.54872930860049
C         4.30765746797437    3.04216826439255   -2.11016826036691
C         3.22350963204759    2.46948004248601   -2.75190314962194
C         1.97019820139234    2.57010239243965   -2.17025985474682
C         1.85809850469534    3.24000177301721   -0.96287194920660
C         2.99368800904855    3.78563143448807   -0.39039549727262
H         7.27579350354633    0.56074119168849    2.86094856546883
H         5.70993581643889    1.16995117035616    3.42610235986506
H         5.79495507112881    0.28808855823577    1.89631632180313
H         5.30639428950607    2.99190968407499   -2.53039403471500
H         3.36386683916174    1.95942755475429   -3.69176814669151
H         1.10249701488014    2.14006977119207   -2.64782593586293
H         0.90461638392157    3.34654992970254   -0.47036628432132
H         2.95256410999076    4.33279101053233    0.54467187328977
O         6.80162432925465    3.76340275236350   -1.05917351917267
O         6.12753021014139    6.34852301651515   -1.06488206026291
N         7.52992867874775    5.30247022720117    0.95899996401871
C         5.15911546625158    6.69121163819169   -1.82796963025212
C         7.41009995159142    5.94926343812272    2.11051223553418
C         8.72401437431274    5.20647950561298    0.39040168931966
O         4.14219904899267    6.04084321988741   -2.00106894588431
C         5.39415631094917    8.01602675521848   -2.54864843217074
C         8.49417947616518    6.52213017588909    2.75219670684910
H         6.41133513089552    5.99954254380681    2.53067123077814
C         9.85953999408066    5.75233540451298    0.96281245426284
H         8.76508266312080    4.65999765290703   -0.54506827002841
H         4.44126049146415    8.43185517715717   -2.86066128443717
H         6.00710881559803    7.82285751700475   -3.42613394992975
H         5.92223234530213    8.70457618002480   -1.89622277184392
C         9.74745623210673    6.42185041589234    2.17041844048269
H         8.35384101554285    7.03184680551593    3.69224778652728
H        10.81298745288194    5.64613225236078    0.47015668624889
H        10.61515906164188    6.85172558105879    2.64812432213824

