47
CSD_code = FEYMUR | q = 0 | S = 0 | Stoichiometry = C16H26Cl2Si2Zr | MND = 12
Zr        2.21621155136682    2.91282527275671    0.80721355540150
Cl        0.21623599212273    1.89545797495953    1.49985358697787
Cl        2.72270533760055    3.13079954306082    3.09005790216663
C         0.81104399315056    4.46043888617968   -0.38525826084204
Si       -0.79326125591747    3.88034562199856   -1.18759175094471
C        -0.52566630406425    2.11419762368909   -1.87679680823033
C        -1.15287707281180    5.04317815723795   -2.66428662331876
C        -2.23816806111493    3.96666601406190    0.05024661754668
C         0.96898066756531    5.01214236605653    0.91808427760580
C         2.30400631363941    5.43444454302095    1.07067516560645
C         2.99586284016466    5.13932008744331   -0.12598153981565
C         2.07736559752957    4.55446666339618   -1.02366684439903
C         4.30729447018722    1.73470275941088    0.63343115820859
Si        5.79203035723439    2.25581594655778    1.67174216841456
C         5.78213966906214    4.16278977686077    1.84233307267020
C         7.37129639759892    1.75706868297162    0.71299530434203
C         5.77359830306235    1.37712803584036    3.36145897542475
C         3.33614120502158    0.74579138273500    0.96091465682296
C         2.47710230967634    0.57429698739115   -0.14196689390014
C         2.89122736910017    1.46137396509927   -1.16148166950626
C         4.02185558570416    2.16288527514309   -0.69144297361515
H         0.18122717156335    2.10974080280077   -2.70277526891341
H        -1.45724809106186    1.70357470370048   -2.25333295312317
H        -0.16045152775535    1.44357259168262   -1.10159089374371
H        -1.29332542850548    6.06770997035776   -2.33653275490598
H        -2.05636578748073    4.73668729617885   -3.17980842744991
H        -0.34511265920978    5.04044046961744   -3.38886105916426
H        -3.16099209433697    3.63191244011077   -0.41233901796015
H        -2.39880936599939    4.98130146343361    0.40238864811195
H        -2.05151518486882    3.33481886414786    0.91226652719706
H         0.17138842410359    5.15894268228137    1.63866628993287
H         2.70316387536788    5.97717843282333    1.91929928270561
H         4.00486724970324    5.45138047149318   -0.36333519577853
H         2.26433181527244    4.34421538252924   -2.07021505193483
H         6.56302337905794    4.49130557814032    2.52099432157860
H         5.96329564785872    4.65137521046232    0.88820521286343
H         4.83218905966572    4.51460927593799    2.23955791697582
H         7.42052816842728    2.23092902060429   -0.26196635279689
H         8.25917047878318    2.04784617068971    1.26356708475253
H         7.41812698833004    0.68455204380136    0.55703558844136
H         6.62030257879817    1.68742404053661    3.96516241057540
H         4.86961935694116    1.61246115850453    3.91348117810910
H         5.83079279679890    0.29857647513779    3.24861586838925
H         3.31723944384512    0.16299519539379    1.87575102008449
H         1.69758668185797   -0.17349226891871   -0.22696068539289
H         2.50660341766532    1.48123127832712   -2.17315381557636
H         4.65423833930476    2.81177568435818   -1.28595294960030

