70
CSD_code = FEYPEE | q = 0 | S = 0 | Stoichiometry = C36H30ClCuP2 | MND = 3
Cu        1.69839507372604    2.50594699805016    3.49500080779061
Cl        2.33610403521131    4.53325418795679    3.04848092294188
P         2.98320478477070    1.00457991687551    4.56836754339763
C         4.78534307509205    1.26592416173071    4.54095321812376
C         5.25016186709317    2.51511017013052    4.14292721703973
C         6.61160692916336    2.76360055262988    4.11284465459525
C         7.50476708949985    1.76885924625108    4.47365082316583
C         7.04073727582306    0.52115396911217    4.86399627044377
C         5.68359107214480    0.26403217764253    4.89789608371390
C         2.83800209340164   -0.63239885876557    3.78109440911245
C         2.71561912231724   -0.61903022084360    2.39369648401526
C         2.61806474344842   -1.80267497636463    1.68916267097646
C         2.62851296923162   -3.01003376719019    2.36879014809800
C         2.74245029514407   -3.02858253018930    3.74886397278560
C         2.85084476389104   -1.84570146267845    4.45835644480934
C         2.63315839018576    0.68488841103004    6.32096177975133
C         1.43262299665232    0.05643043633422    6.64826832110476
C         1.06184730021604   -0.09566796917341    7.96931850103320
C         1.87813985524424    0.39431544943600    8.97716455800140
C         3.06151230920376    1.03965165832730    8.65749083350180
C         3.43829167197056    1.19366639434310    7.33525955615439
P        -0.38071686834178    1.73431438268770    3.10423193681758
C        -1.54341476530914    2.76607237020274    2.15172685241583
C        -1.19332827812741    4.10294787691287    1.98622163381357
C        -2.04529931688577    4.96099963269236    1.31424970585270
C        -3.24360637846703    4.48810933454633    0.80579946095931
C        -3.58983304208075    3.15506415339112    0.96488005883262
C        -2.74591182220084    2.29110491952678    1.63713185388112
C        -1.23310358201813    1.67497273613204    4.71566894475059
C        -0.63445359962310    2.35045442605781    5.77435406453936
C        -1.23108125174490    2.36182252436624    7.02175995752659
C        -2.43107769069051    1.69893322323455    7.21670015971067
C        -3.03684875394405    1.03301606757240    6.16223261176127
C        -2.44556071559612    1.02175505308461    4.91267533634460
C        -0.62045208969068    0.07350008825833    2.40801522394954
C        -0.65961725676255   -1.06273726933776    3.21048600415375
C        -0.70709765118645   -2.31861261420376    2.63555125896063
C        -0.70165562961636   -2.45442976759654    1.25727097651874
C        -0.63703820702500   -1.32839612831026    0.45193582377694
C        -0.58531876897908   -0.07130011299982    1.02203598582855
H         4.54212770146142    3.28324206624742    3.85695330005307
H         6.97309294323223    3.73343852568319    3.80542766597475
H         8.56734627512537    1.96200200168167    4.44934711833473
H         7.74136789436527   -0.25311290899138    5.14194027308987
H         5.31662674248193   -0.70762716812104    5.19912492481571
H         2.69580767700275    0.33457540631786    1.87841762837612
H         2.52673492621676   -1.78607320079460    0.61344515687615
H         2.54564955351895   -3.93765094547876    1.82218000078746
H         2.75054473026216   -3.97118406699620    4.27716215194414
H         2.93845792588019   -1.86614328234413    5.53584216234684
H         0.79720325469194   -0.31059171070176    5.85335718084517
H         0.13182697816033   -0.58792469204262    8.21438959030958
H         1.58775135241212    0.27885940139366   10.01087519734253
H         3.69250282942840    1.42993609671371    9.44258041885178
H         4.35657061186213    1.70687060847568    7.08578745142046
H        -0.24597318276010    4.45852663361002    2.37244219511690
H        -1.77038987917791    5.99685318785737    1.18339463453153
H        -3.90872482705845    5.15636697515602    0.27863477552884
H        -4.52260834972755    2.78700951907510    0.56203294073189
H        -3.01317737869543    1.24934467819468    1.74881272664685
H         0.30588272256895    2.86429363624048    5.60994052490390
H        -0.75747907550000    2.88314576656277    7.84022394080442
H        -2.89819854017123    1.70225853796164    8.19052309797554
H        -3.97583299607491    0.52089633099107    6.31533711513974
H        -2.91918793934890    0.50052818615290    4.09297118489344
H        -0.66618606392431   -0.96093128131210    4.28686182894331
H        -0.74656900571235   -3.19527189048825    3.26552058785589
H        -0.74218339168021   -3.43696822035069    0.81117683391271
H        -0.62340007654704   -1.43236512615639   -0.62335706103767
H        -0.52414545740120    0.81138209458127    0.39888138175491

