33
CSD_code = FEYQEF | q = 0 | S = 0 | Stoichiometry = C13H11MoO7P | MND = 6
Mo       -5.24368902995508   -1.98007414075943    3.70984414451296
P        -4.45654287978805   -3.96961961849677    2.59612103351092
O        -6.23663756407169    0.60343119994925    5.09636320257152
O        -3.66968393517560   -0.30430525966260    1.62532496190125
O        -7.72277030073933   -1.90384888578214    1.83893625274016
O        -6.82076542517366   -3.75388269278939    5.71393376383156
O        -2.76478275368019   -2.01388781314974    5.57645132740786
O        -5.03820278302095   -2.93840742865607    0.21883896548144
O        -2.35985938210441   -5.13069330947628    1.47151264736873
C        -5.87617570287659   -0.34951219316734    4.58707036887013
C        -4.24901132698629   -0.91046796980627    2.39776185817751
C        -6.81067613003269   -1.94466673681817    2.51370394854914
C        -6.24648581525744   -3.09528690720280    4.98409576047651
C        -3.67650423997257   -2.00548964085408    4.88985894308240
C        -5.07219583456702   -4.18504446451361    0.86534547606059
C        -2.62622548186380   -4.01494003355572    2.28673040352109
C        -5.18078349855997   -6.71594563270890    2.70889230421397
C        -5.30349012559277   -7.91648468024084    3.38824739819426
C        -4.90621420610837   -8.01796685175120    4.71051869661523
C        -4.38295857202218   -6.91281827000986    5.36336421717942
C        -4.26222258830727   -5.71179309152402    4.69145634070688
C        -4.65467869303553   -5.60571282334297    3.35869331740314
H        -4.12136778081915   -2.70418460726642    0.03088329494123
H        -1.42241158202498   -5.34905274563798    1.50425086458868
H        -4.49268026995597   -4.94777559572023    0.32675687266225
H        -6.12786000186093   -4.47757961120514    0.91259174623203
H        -2.30607831006553   -3.07297557996981    1.80822306274328
H        -2.12904943756608   -4.08566986551174    3.26542637211961
H        -5.49435137545555   -6.64975385687432    1.67852134360523
H        -5.71352165363819   -8.77729096524601    2.88081924976434
H        -5.00757648035368   -8.95646566084430    5.23469934273354
H        -4.07639242159515   -6.98727600722301    6.39618007337669
H        -3.86475441778480   -4.83945826017837    5.19968244485202

