93
CSD_code = FEYQIM | q = 0 | S = 0 | Stoichiometry = C37H45FeN3O7 | MND = 5
Fe        3.45641535912151    8.07015211362649   12.35096960877437
O         4.82225847115941    6.86114555437803   14.61855083869669
O         5.64396474163202    9.97967286165112   12.00361232200199
O         8.13945238300626    3.18970496046096   11.86053824111938
O        11.07487225123827    2.71215897110262   12.87556558833239
O         9.62965336896174    1.81304079024958   16.09263111057380
O         6.59630400563056    2.51448362872216   15.81632292731114
O         5.89841617725700    2.91191305181299   13.14093247555041
N         1.99387051856305    8.95803591914494   13.40538509099266
N         2.26208242358882    8.47897265128854   11.03199423084785
N         3.96380741426121    6.73587131772185   10.91979655594363
C        -0.00376659644652   10.44709645764666   13.25143513599368
H         0.04148187987049   10.45443758164821   14.33784679356446
H        -0.98510044387088   10.08865425231012   12.94165471672732
H         0.11143353145554   11.46767237414729   12.88645795668725
C         1.07246403982872    9.57066995312187   12.68617415618243
C         1.17660707996023    9.28880806269522   11.29459560901468
C         0.31283649516941    9.68211127589503   10.28101905746489
H        -0.51489095565125   10.33661343680477   10.50518779634765
C         0.51085552043714    9.21337138101212    8.99010045671500
H        -0.15012593810259    9.51807531821116    8.19353041623568
C         1.53844441303427    8.31551836166233    8.74036605188799
H         1.67114809704584    7.90280649959605    7.75259900168749
C         2.39001595500088    7.93424182907859    9.77024466259957
C         3.42913805425394    6.96197193590112    9.73079028048466
C         3.80825630677862    6.24640920291834    8.46935844121444
H         4.39015496085078    5.35597423664897    8.69468310586666
H         4.40139999102319    6.89350798784172    7.82276383720923
H         2.91333754907046    5.95406909889118    7.92297802467442
C         5.03527627853056    5.84369187880803   11.07608319435008
C         6.22987608002012    5.98208589559993   10.38411562456696
H         6.35665212354921    6.79644395283003    9.68763922856920
C         7.28407920693926    5.11271968001098   10.62325639116231
H         8.20591951860705    5.25937838354502   10.08399293396715
C         7.16642518321004    4.08880021374046   11.54823204179871
C         5.95153702738358    3.94249406073626   12.25626923402204
C         4.90983396315297    4.81516523970710   12.01415193512214
H         3.97378071676617    4.72450001997811   12.54293478049587
C         9.38651273912772    3.30521913772903   11.21447034441470
H         9.83147390777872    4.29156599293739   11.39547424458754
H         9.26295103312181    3.15688749896391   10.13224985350951
C        10.33391059119509    2.23724656651083   11.77190239852541
H         9.75192720024149    1.34886577894164   12.03327558757264
H        11.05643322016452    1.97312431449616   10.98873872581364
C        10.86343982436931    2.06998795263738   14.10830474745745
H        11.71931668437400    2.34820930936510   14.72892167172482
H        10.86663243289542    0.97817016745063   13.98862036101178
C         9.58130142955801    2.48089603674635   14.84333906219817
H         9.56603865507816    3.56925859956004   14.99239530396858
H         8.68763424622311    2.20461388263449   14.27064313562467
C         8.63775806308029    2.18465186243709   17.01392453631097
H         8.55758851629565    3.27766171374337   17.08371267512196
H         8.97531393452004    1.77984364554341   17.97119245950605
C         7.25011681358933    1.62264549081664   16.68479396884763
H         7.36400933109983    0.63463417404243   16.21410379322859
H         6.66532264050951    1.49923584974674   17.61038467198474
C         5.40837581303837    2.01135678649437   15.26449845743616
H         4.62803278224843    1.91193595474073   16.03600271431500
H         5.58434073199020    1.02382103958153   14.81207755468092
C         4.95040629806306    2.98260085500981   14.18309023413711
H         3.95104378862859    2.69480304937547   13.82724638023312
H         4.91550822887310    3.99576784355114   14.59922498523308
C         1.97731139125863    9.05967983999432   14.81387097200656
C         1.38668690351298    8.02473178275429   15.55397337377051
C         1.35210811599696    8.12627398604724   16.93620459547589
H         0.88564862047899    7.34529289460973   17.51720017469472
C         1.90620366846003    9.21419528658983   17.58352351985663
H         1.86816111742988    9.28082245644775   18.66080950598902
C         2.52119177310528   10.20915381360953   16.84887254364460
H         2.97050052227366   11.04567054250402   17.36211465462135
C         2.56516263749120   10.15367303653621   15.46319588237394
C         0.79459568221970    6.81919569198392   14.86041200387515
H         1.06622523283451    6.86912501170631   13.79784701446703
C         1.37558039711579    5.51962583586938   15.42054492154444
H         1.03479934199280    4.67325280335095   14.82719479724218
H         1.06595830242004    5.35811143117468   16.44996247977336
H         2.46176608844182    5.55187032922033   15.38829757149173
C        -0.73135234638889    6.83022329152569   14.97360593526625
H        -1.15577664340530    5.97682484187929   14.44871728110070
H        -1.13907620355010    7.74037136811136   14.53900288883761
H        -1.03935240075105    6.78157386332591   16.01584011810425
C         3.28355094769638   11.23085739924137   14.68532042067402
H         3.19079287528873   11.00954456103196   13.61636521989584
C         2.68660942922996   12.61499689810585   14.94684434484372
H         1.62260840571227   12.62592001810767   14.72116933984935
H         3.17986385260804   13.35618384390170   14.32178341756669
H         2.81761949945170   12.90548164934530   15.98633254114198
C         4.77296990010295   11.20829750794722   15.03710668131502
H         5.17598150702177   10.20996814068796   14.88023732874643
H         4.93200792634918   11.48609492188764   16.07627205305674
H         5.31934848357462   11.90461560450428   14.40513758368315
C         4.26828395010947    7.31959169926671   13.71467639947967
C         4.76386496380701    9.25563575556936   12.16841671319397

