55
CSD_code = FEYRUX | q = 1 | S = 0 | Stoichiometry = C26H20Br2CoN4O2(1+) | MND = 6
Co       14.36676089739336    0.55482992369315    4.17637847438970
Br       15.12819192094915   -2.96660000374434   -2.23546626481329
Br       15.47000997326531   -3.79703813564963   10.00154569170122
N        12.97173618805767    0.29756709181252    2.94960371732598
N        13.06615969433468    1.54264471942085    5.21051739179710
N        15.76971066688668    0.77822721859623    5.40077764056532
N        15.05345789417651    2.15455519875628    3.33600171493027
O        15.60961184101622   -0.41004136126079    3.17440568858656
O        13.72095569707503   -0.99471508043505    4.98942093884358
C        15.43895924311055   -0.94179768706154    2.01602596266502
C        16.55235911925002   -1.57083675927265    1.39987643107755
H        17.48452594134997   -1.57524567915295    1.94253574587560
C        16.45772691399680   -2.15768028719420    0.16959788252131
H        17.31912422992403   -2.62936273789191   -0.27788065437273
C        15.23658805453650   -2.15258369865087   -0.51867173603268
C        14.13023164579904   -1.57008334825075    0.03611093847830
H        13.18960344037958   -1.57600470488694   -0.49387982552494
C        14.20343252480208   -0.95057076790542    1.30097107916610
C        13.03012174789493   -0.38531931730865    1.85397006946433
H        12.10844444930178   -0.54740281937098    1.29337594738133
C        11.67215716816367    0.71885993453060    3.42908486235330
H        11.03962520863583   -0.16010119402303    3.61371563993387
H        11.15876237785572    1.34298238999129    2.68474297607656
C        11.82692244280176    1.47135207888319    4.71314787703913
C        10.73758087761990    2.04542456724691    5.35714899565736
H         9.75532873415330    1.96163210866167    4.91967128944066
C        10.93051371623505    2.70761036285273    6.55517087614752
H        10.10070056077321    3.15537369538614    7.07845627987077
C        12.21862971155225    2.77778830578196    7.06814536348847
H        12.42116637377060    3.28065495105108    7.99943861629702
C        13.24930275172628    2.18540929977025    6.36626113630042
H        14.25872394016898    2.22327670463584    6.74733691933757
C        14.14920877607220   -1.55098011253843    6.06684829805706
C        13.45530439134079   -2.69091826030574    6.55058602510219
H        12.60625617913284   -3.03518879509637    5.98135012763504
C        13.84220737943128   -3.33964785458828    7.68915146601563
H        13.29740783566716   -4.20395883827474    8.03685127544782
C        14.95385350212466   -2.88584272208273    8.41251158574427
C        15.66461424792572   -1.79910993256939    7.98242863559480
H        16.52545150275813   -1.45842488855440    8.53792690635076
C        15.28107742500485   -1.10702128624346    6.81495483736046
C        16.05908979604240   -0.00549081097600    6.38677362021321
H        16.97382853637072    0.18447953400196    6.94996232130587
C        16.72643156842333    1.79988646427473    5.03043104906866
H        17.68017673804615    1.33373376161820    4.74802033617783
H        16.92781666712937    2.47702880142298    5.87194804430024
C        16.21010969287486    2.57484506731396    3.85913781262628
C        16.90711304614623    3.65804925025154    3.33776902470444
H        17.83771620493678    3.96080028266234    3.79116286167213
C        16.39937573109099    4.32478745526547    2.23837472064988
H        16.92473979319070    5.16353874989496    1.81010632610073
C        15.19875289399973    3.88417050314874    1.69831782600043
H        14.76220228972215    4.36874207025807    0.84051603865938
C        14.56444661938170    2.80269386443675    2.27618665319679
H        13.63179323623865    2.43942272766879    1.87144654205355

