93
CSD_code = FEYRUZ | q = 0 | S = 0 | Stoichiometry = C30H54B2O4OsP2 | MND = 7
Os        1.30458836726075    3.44262209808540    9.94755970960425
H         1.09469328357084    1.90636702229322    9.79310667010739
H         2.41786408888211    3.24666754475185    8.85192452033290
P        -0.38893166746346    3.70126945982455    8.30761822539632
P         2.74453365284579    2.99343539744087   11.79165149222979
O        -2.48316404402062    4.57955534723680   11.93063663735352
O        -0.61484607595694    5.69595547690194   12.57048863087566
O         2.02423110388797    6.10282126438647    8.38889519023695
O         3.51075542197696    5.67507861019249   10.06832452327850
B        -1.12355169106711    4.51548052433635   12.08671423042821
H        -0.48893775569763    3.56497328993187   11.86949584624038
B         2.18953427517585    5.49696244250957    9.64015053974985
H         1.29228657955474    5.38387784774476   10.41931424322723
C        -2.83657783731664    5.83793684962694   12.31008971729029
C        -4.07951380007958    6.43681095346033   12.33462259076901
H        -4.96426916220060    5.90215693178459   12.02938206106069
C        -4.12922421602869    7.75306878506304   12.76862081267820
H        -5.08238254789756    8.25801899875369   12.80241796555715
C        -2.98492460490868    8.43661086538145   13.15868645181774
H        -3.06879580707304    9.46067663518580   13.48869404685374
C        -1.73428089884852    7.83765432926224   13.13425546990816
H        -0.84276107935173    8.36457089141164   13.43334521699155
C        -1.68371723980844    6.52797048151062   12.70377199041561
C         3.25587916853195    6.51122376514516    8.00329275300163
C         3.65512198459777    7.10200821470423    6.82251456488291
H         2.95271104700137    7.29626632944673    6.02795857418759
C         5.00073739500800    7.42629872244299    6.70357067494651
H         5.34979152939852    7.88865733123349    5.79249514015969
C         5.90297824136023    7.16768617745286    7.72371439372176
H         6.94124809813636    7.43306869466141    7.59223986427169
C         5.50436405051107    6.57112227263869    8.91335849399414
H         6.20454895121282    6.36397665781617    9.70670871880147
C         4.16890254529293    6.24832460010317    9.03402411119332
C         0.11288917810147    3.07222625236016    6.61063216132883
H        -0.76097606977729    3.08862881541127    5.95212028486047
C         1.20857515505742    3.94681640309475    6.00963990934678
H         2.04786823831829    3.99945982301308    6.70018784189093
H         0.85853131202179    4.95482415505304    5.80486695056627
H         1.55785252254557    3.51143391765218    5.07411485229544
C         0.62255237729901    1.63889039677462    6.72584139482606
H         0.93714867367237    1.27398266976432    5.74910429749710
H        -0.14339154201587    0.97177624662003    7.11015875054859
H         1.46994020574101    1.61366699497128    7.41023447874118
C        -0.99302195457644    5.44277148715357    7.86294054916293
H        -0.06697497159976    5.95231336077080    7.57823185843847
C        -1.99406257084523    5.58821477860068    6.71976571686974
H        -2.97527257253534    5.21985684638580    7.01026015256393
H        -1.66799070452483    5.07036461006283    5.82230670780888
H        -2.10060380351347    6.64515736581469    6.47256655861973
C        -1.54050452924792    6.15875531311146    9.09549916403798
H        -1.73149040388492    7.20846276422311    8.87010277023342
H        -0.82533740642478    6.12479474170645    9.91434551607159
H        -2.47808088888092    5.71628958333713    9.43103678491100
C        -2.04928206152308    2.82195805441801    8.59314792709969
H        -2.66997540078459    3.57716912510348    9.09264608702010
C        -2.80279915358921    2.32494821724229    7.35979988831026
H        -2.28674001376662    1.48548037883552    6.90230607664361
H        -2.94144284863764    3.09665566592686    6.61038614607482
H        -3.79029996590295    1.97881088841967    7.66696246495877
C        -1.88491197355572    1.65487339280287    9.56449237437333
H        -2.85161159396146    1.19022884729004    9.75834988531891
H        -1.47862693443675    1.99391875994214   10.51292169141195
H        -1.21329152629217    0.90408836490657    9.15593641740456
C         2.52446978346697    1.26620549960599   12.50445681378822
H         3.09458102262378    1.19278794947193   13.43514939432621
C         3.01622998863752    0.21014697880253   11.51856178274600
H         2.60450128154086   -0.76384693211941   11.77940443708923
H         4.09846929754883    0.12721682792303   11.52658384618759
H         2.68779559745297    0.47180814986805   10.51250436184090
C         1.04502099683958    1.02190747377904   12.79401004193808
H         0.49637984535113    1.00856169537720   11.85316892422740
H         0.61742002268769    1.79237846236775   13.43317260378517
H         0.90809118674754    0.05839790850300   13.28441603860140
C         4.61330275573929    3.13744084287895   11.58197120815895
H         4.76064702270910    4.22039183778632   11.52570336082503
C         5.06461267959147    2.56207254434737   10.23940152508487
H         6.01489954254437    3.00561748754713    9.94540822794542
H         4.32177600740872    2.77931436825157    9.47202744170978
H         5.19508253987232    1.48584109006505   10.28936710521689
C         5.48940266502755    2.59067742597727   12.70636916180098
H         5.32576122170905    1.52796521682765   12.86352434326523
H         5.32210465663133    3.11188002294824   13.64447833802610
H         6.53636642222990    2.72850136315823   12.43553525796563
C         2.43035413300885    4.05402915649469   13.34566150781196
H         1.35893968599507    4.28580407924714   13.27445393708114
C         3.17558133977129    5.38695776787356   13.27486309809797
H         2.73473148033659    6.09363525304919   13.97875326082476
H         3.12030588121796    5.81957397396567   12.27999524825868
H         4.22374254164648    5.26258310949678   13.53856076320539
C         2.65384023127830    3.42649436800378   14.72307957179853
H         3.68506872438067    3.11863760945285   14.86836677715391
H         2.01092894077172    2.56855991557732   14.89581377178014
H         2.42053237630468    4.17136552001471   15.48518811867814

