135
CSD_code = FEYRIL | q = 0 | S = 0 | Stoichiometry = C46H78NS3Si6V | MND = 4
V         7.71444039573865   11.98020585922733    2.98234473593046
S         5.46274453440266   11.86953921467028    2.81799756261994
S         8.33367925465813   10.43278621192548    4.41966052429473
S         8.49606007677041   11.66655364488065    0.92042950815872
Si        3.69934435254754   13.72282860595017    4.77104499764692
Si        5.08547459745736    8.60478271174732    2.88937613702891
Si        8.26420036383600   11.85650745465737    7.42569248231311
Si       10.82524701613376    8.41391662037051    3.93505674181703
Si       11.70154471709142   11.81695244312991    0.23205819679229
Si        6.30820313193622   13.71236339158064   -0.64005017758016
N         8.34473292232964   13.38902003807022    3.39151010126542
C         4.80764966910806   11.12042207271261    4.27062380474629
C         4.18194135848690   11.93870743462958    5.21426674527297
C         3.77803289402011   11.34916925451000    6.40709547903936
C         3.97460260195740   10.00077541271814    6.64239040609430
C         4.46024507374694    9.19461519590413    5.62836766602739
C         4.85703254240509    9.72858082462591    4.40711624546642
C         2.52175327760952   13.63939644022280    3.26661556365492
C         5.13975469172235   14.93659803177296    4.46198132025196
C         2.70086929982355   14.44040254399999    6.23227761176537
C         4.82058117163122    6.79941794230147    3.44413707891731
C         6.76622203903561    8.63269217336030    1.99921607869496
C         3.68296983014810    9.06228757768505    1.67025002359353
C         9.82741335692392   10.74100466871971    5.29483075440086
C         9.83964608900985   11.61656268304787    6.38637761452649
C        11.08429334476579   12.02351930998478    6.85627302769243
C        12.25610086194656   11.53005321500202    6.30951864077633
C        12.19402629224595   10.49624993420687    5.39237018900620
C        10.97723320275288   10.06163273598357    4.87879375239797
C         7.56868064292084   10.10868058267857    7.76868235856624
C         6.89518577747783   12.94971767398691    6.69419318461792
C         8.78955442005608   12.62554232286370    9.09297712487743
C        12.53873698442413    7.57325041824470    3.98372492088740
C        10.29405711971916    8.46193564111353    2.10407186797921
C         9.63798315632674    7.31264719199542    4.95668358679975
C         9.09906915601752   13.08460673291960    0.05586229682475
C        10.48301292331477   13.23746892582861   -0.10425610867838
C        10.94418758308768   14.41355098815255   -0.68480850360220
C        10.07039969025096   15.38633002251601   -1.13347570544286
C         8.71175779432837   15.14217607188013   -1.08980913454449
C         8.19250158645483   13.98492288309077   -0.51326922597180
C        11.17344525599741   10.33890604592465   -0.85765033971106
C        11.89739988131230   11.41452936057041    2.08158339190905
C        13.43145472888871   12.34693059769014   -0.38138184069404
C         5.74957236952431   14.54051180193960   -2.27166911651367
C         5.50554232373296   14.65153673386708    0.80973235711141
C         5.76309065032496   11.89045438326466   -0.77876999737558
C         9.07010757039930   14.56140306311789    3.61451903385482
C         8.95241550899461   15.05783664616135    5.06925844730391
C         8.59301911855731   15.68664023123527    2.67264702795657
C        10.55647529755724   14.26108490974185    3.32824887599465
C         9.80608248556345   16.30928468008241    5.26435425924976
C         9.45345825701745   16.93137552360824    2.87754510524101
C        11.39877151124103   15.51641975204625    3.52722295370648
C         9.32452760572061   17.41234598428419    4.32239474922453
C        10.91513318937577   16.60764332196117    2.57362892371062
C        11.27106252786765   15.99119549963444    4.97309123351616
H         3.30052953224799   11.95773895920065    7.16037184477695
H         3.69364819203721    9.56711632053837    7.59174226259532
H         4.52059049525352    8.12758197249653    5.78012951264450
H         2.19468839991628   14.63134565837334    2.96920068920922
H         3.00425146082146   13.17646087083090    2.41221922122098
H         1.63509430159692   13.05635098026346    3.50001730734378
H         5.44951901943744   15.41605304528557    5.38591765483026
H         6.00243802252976   14.42931712220602    4.03285253212925
H         4.83272574022546   15.71798233911639    3.77318052503600
H         3.28646248842355   14.49003901056116    7.14456500870599
H         2.37998347792490   15.44978527729665    5.99858384013661
H         1.80979927692711   13.85699627913794    6.43757962018980
H         3.84086417589748    6.65645003269572    3.88694290405657
H         4.88927772792353    6.13713246570257    2.58785512174579
H         5.56559582233082    6.47690394333485    4.16428096839647
H         7.56084092408839    8.30148791100778    2.66182331934337
H         6.74895517797569    7.96324396820005    1.14275095972184
H         7.02195509336697    9.62257839515340    1.62434069092841
H         3.73638792345415   10.10306952628079    1.36552409364832
H         3.73130040672055    8.45248265697736    0.77284842098417
H         2.70862153508964    8.90526276429627    2.12471936230143
H        11.13247862780926   12.72769755077237    7.67316300782307
H        13.21307778744698   11.89123361940494    6.65850084062988
H        13.10393943895317   10.01540405355147    5.06874111789689
H         6.83279070202449   10.13170193635659    8.56712042650411
H         7.07849508495060    9.70696718145521    6.88666201670241
H         8.35170869374064    9.41313706404221    8.05800695530738
H         7.00842114325074   13.98906442636113    6.98171116617742
H         6.88890317128379   12.88906722027969    5.60581122311699
H         5.92817326897886   12.61482025846165    7.05380589525469
H         9.53904979153707   12.02498356549843    9.59685642105558
H         9.18788468250541   13.62793053104124    8.97443944816250
H         7.93098386907014   12.69595532974032    9.75191373330383
H        12.47766290229179    6.58624602365806    3.53798028402089
H        13.28598877872697    8.13102256076910    3.42861687236460
H        12.90074643700238    7.45001679485069    4.99878431896997
H         9.67025276041928    9.31980186467050    1.87172331729332
H        11.15662819025097    8.50165648435980    1.44756265051242
H         9.73620026212897    7.56514497310609    1.84984750623576
H         8.64198613827270    7.74029353792683    5.01694323262042
H         9.54771384513237    6.32287356267162    4.51798982490857
H        10.00018549966804    7.18908364720638    5.97379337868855
H        12.00734360073942   14.56293620919552   -0.79123944078234
H        10.44695510111300   16.30600069291165   -1.55802720472723
H         8.03039823602189   15.86278101389660   -1.51431639564198
H        10.18845679113134    9.97287131565883   -0.59012613393987
H        11.14144427987923   10.63064986872022   -1.90423792837860
H        11.87399421105050    9.51357425083938   -0.77075304903818
H        10.93413608938655   11.37186698867253    2.58484075887849
H        12.39005920340832   10.45821254947450    2.21768674441107
H        12.50182709169210   12.16295372422369    2.58541572936927
H        14.13569765941983   11.53290172118071   -0.24602441661978
H        13.42884453254557   12.60003223504830   -1.43621595104968
H        13.81729317182508   13.19996631391431    0.16720040099618
H         5.78694868117435   15.62242881964715   -2.20941142182679
H         6.36589442328315   14.23605281188848   -3.11117375332620
H         4.72477995136792   14.26956141321793   -2.50210886759925
H         5.90270865711334   14.28656339516185    1.75426481729684
H         5.70502021208782   15.71786672945566    0.74784831957531
H         4.42925930644295   14.51503717688450    0.82512987643208
H         4.79904755853740   11.81583350766327   -1.27441987234942
H         6.47498957979130   11.29776473203479   -1.34656412497881
H         5.66107140955414   11.43547511329052    0.20200210457211
H         7.90886286099158   15.28731219201484    5.28205419560972
H         9.28105293003118   14.26056552148230    5.73895969953833
H         8.66185545755404   15.33808849727010    1.64081565851061
H         7.54745211329790   15.91289986829846    2.88906684795405
H        10.88088507575961   13.46612446522148    4.00488720685492
H        10.64444863553621   13.90612125903665    2.30033618120385
H         9.70520877158016   16.64639802649733    6.30236075333450
H         9.10561553671873   17.71656117522349    2.19714439336681
H        12.44603863958266   15.27868657867786    3.30971433703438
H         8.28351442951510   17.65973153056870    4.54033598017362
H         9.92243289502005   18.31439021840848    4.46957918498345
H        11.00986185920731   16.26423480804931    1.54150224337731
H        11.52673471278286   17.50490504490910    2.69207116978745
H        11.88466277413005   16.88079686679882    5.13166341072359
H        11.62357921441171   15.21040004127851    5.65036450931106

