91
CSD_code = FEYREJ | q = 0 | S = 0 | Stoichiometry = C26H61BOsP2 | MND = 7
Os        4.03389692266258   14.40123805116986    6.31933003885764
H         2.95813124282667   14.40145791173490    7.46528148834837
H         4.72279111431152   14.40130248261797    7.69984522581617
H         5.59966804444442   14.40107935025406    6.13501528279162
P         4.05268081442621   11.95794266032970    6.47928430532751
B         2.94345429841410   14.40126223579413    4.03234958237221
H         4.18712131343356   14.40126915366633    4.34026564186247
H         2.43738649883819   14.40120972430906    5.22888767873450
C         2.48199783707962   13.11930277356894    3.16341383665436
H         2.76022682673965   12.16255815932814    3.63189263728809
C         3.18598747937300   13.12035142499149    1.79722146045621
H         4.25505840004285   12.96337506972545    1.97860827845521
H         2.83598763855811   12.27302200595305    1.19543612841598
C         3.01966811066132   14.40128247290322    0.97904981862712
H         3.76793586334356   14.40127964421083    0.17825319863303
H         2.04856086223648   14.40129855951863    0.48675959048291
C         0.94797497739936   13.11377973843109    3.06429355836956
H         0.61191598661590   12.27375818400058    2.44428684906634
H         0.55628032676591   12.94505328770055    4.07371279567141
C         0.32834155186975   14.40131019977354    2.51419862317573
H        -0.74035097280627   14.40131696668019    2.75762896714469
H         0.39037610150959   14.40132194796965    1.42699198592730
C         4.80344184381517   11.33949222130819    8.08728023580440
H         4.83691789147147   10.24742528022279    8.02980220613523
C         6.22663685648477   11.87034428120591    8.24221876425361
H         6.20317378836904   12.94354220862685    8.41873644564387
H         6.82535554354777   11.69297614228856    7.35375411105270
H         6.71389528426548   11.38740173773180    9.08845020286951
C         3.98159331331187   11.74791199069615    9.30617156122910
H         4.55431220664652   11.55927019148965   10.21332637076497
H         3.05464261274029   11.18581501332646    9.37547881022609
H         3.74799064192713   12.81036731557377    9.26110192144053
C         2.37004924622000   11.10080499637337    6.39634676065712
H         2.12985319098060   11.14845578199726    5.32587060188560
C         2.34082551882170    9.63206820251071    6.81309833004180
H         2.64459258202278    9.49936231133785    7.84806274516629
H         2.97175010144538    9.02037981121753    6.17527442943086
H         1.32092935212044    9.25994773284548    6.71653225049836
C         1.27033852920662   11.86935159192405    7.12469088815936
H         0.30110547544639   11.43053942958408    6.88786518145611
H         1.25469511032892   12.90937991248735    6.81047429591244
H         1.40110964131368   11.84214730287593    8.20242063433312
C         4.97755980945286   10.91684893211997    5.18894535001260
H         4.19461951989472   10.62910668631684    4.47497764305260
C         5.99610896471513   11.77074352294378    4.43694965203866
H         6.77318528381832   12.13501483175660    5.10603632984130
H         5.51513075771855   12.62905042459016    3.97705705983730
H         6.46740096194207   11.18262226854174    3.64975744184234
C         5.66929801273343    9.63865640298865    5.66521151380453
H         6.01453579558320    9.08921489157686    4.78925169460759
H         5.01208846871997    8.98147377491148    6.22592449382347
H         6.53862539722332    9.86091858597642    6.27738048355804
C         2.48201982761825   15.68324997015671    3.16344225565315
H         2.76027403079871   16.63997794700638    3.63194187629041
C         3.18601063610650   15.68219431683631    1.79724883459668
H         4.25508531842954   15.83913363342739    1.97864525238358
H         2.83604292417178   16.52954432014226    1.19547358297114
C         0.94799931861671   15.68881857271621    3.06431561995315
H         0.61195964552073   16.52886151366553    2.44432680123382
H         0.55630989316659   15.85753634746249    4.07373765673514
P         4.05246316210150   16.84456394418756    6.47939032798070
C         4.80343795491981   17.46307048702920    8.08726086330928
H         4.83690577945613   18.55514061861956    8.02979589747401
C         6.22663101231196   16.93221202107464    8.24225307050183
H         6.20314712182655   15.85902468227357    8.41883507656525
H         6.82533545252599   17.10950922065197    7.35376383249482
H         6.71391663180467   17.41519284089777    9.08844821201768
C         3.98152727883504   17.05461016397995    9.30608925465229
H         4.55421644511918   17.24328588630433   10.21325240879457
H         3.05455230637578   17.61667031970822    9.37537231513157
H         3.74796430827133   15.99214325412870    9.26102710109932
C         2.36995434790387   17.70186678462633    6.39625453827874
H         2.12981467610530   17.65426581794998    5.32576310484657
C         2.34085097374155   19.17056800516562    6.81312891351992
H         2.64451980475701   19.30316183314412    7.84814000821726
H         2.97188181075655   19.78227241794393    6.17542304507525
H         1.32098761956024   19.54274507794766    6.71648804337021
C         1.27031834201033   16.93320328851302    7.12456014859591
H         0.30111670635615   17.37212770257970    6.88784224343590
H         1.25459886892666   15.89322538876725    6.81018093620481
H         1.40114421501233   16.96023631187574    8.20228426867933
C         4.97751076732296   17.88562706958569    5.18908405179788
H         4.19459391454764   18.17338593280146    4.47510066475799
C         5.99608818268877   17.03186369847723    4.43695730380703
H         6.77320870750505   16.66761136134613    5.10599890978267
H         5.51514190535765   16.17354648525978    3.97705280073843
H         6.46733979174240   17.62001481160640    3.64975502828842
C         5.66925544830000   19.16387918083288    5.66520711243705
H         6.01446908673742   19.71332113230524    4.78923179524961
H         5.01205393806496   19.82107100494642    6.22591070876691
H         6.53859890359698   18.94166085208575    6.27736075245535

