89
CSD_code = FEYRIN | q = 0 | S = 0 | Stoichiometry = C24H59BO2OsP2 | MND = 7
Os       -0.00029295749746   13.45919690254010    8.30458998276870
H         1.35047363309064   13.99866502117271    8.89787668940633
H        -0.00025613780619   15.02828634737250    8.30445523039065
P         0.95355196226828   13.53230105579216    6.08254404727745
O         0.43980691496076   10.27951877807754    7.24120248350196
B        -0.00048037677904   11.11056862142832    8.30463430173793
H         0.90186670339739   12.00096446067105    8.72018431900508
C         0.50212836401414    8.94111025009728    7.70504774851215
C         0.14528328296705    7.98636985707053    6.56769146412818
H        -0.78558884813586    8.27719957000658    6.09053315948289
H         0.05759463777854    6.97080619812090    6.94552471400498
H         0.93212359720769    8.01576076343073    5.81718029249426
C         1.94432944209496    8.66765406060525    8.15861660901379
H         2.61603408974847    8.88641455218230    7.33056261148894
H         2.07308405502807    7.63034458485620    8.45433833554724
H         2.20786149771004    9.32022274491050    8.98809191067774
C         2.39207857275702   12.37016095734500    5.73255839770146
H         1.89473682885285   11.39597747182957    5.82781862070953
C         3.04147166346345   12.46389351728511    4.35421580595823
H         3.63837341615491   13.36886269838980    4.26754790758084
H         2.31237361472550   12.44296948295811    3.54894300876100
H         3.71193610150292   11.61469730730379    4.21826798086137
C         3.47312058880228   12.42266049557165    6.81057497691938
H         4.10052300616222   11.53357754831387    6.74509600172977
H         3.02968579557034   12.45207982507191    7.80212357595036
H         4.11271962235570   13.29347572199355    6.69614082560393
C        -0.15933590056473   13.12995148159199    4.62086358903884
H         0.39105193561449   13.40773260537515    3.71564354146643
C        -1.43572923827462   13.96448640528869    4.68877122949114
H        -2.00281691874118   13.85955602083327    3.76382384983645
H        -1.21926092210003   15.01862575512308    4.84566735865957
H        -2.05954584331163   13.62740580382047    5.51306274947148
C        -0.51617544755352   11.64914849582917    4.53964822188371
H        -0.87860212582006   11.28857217286388    5.49860270090564
H         0.33910968148606   11.04176294742207    4.25435613604204
H        -1.29953134391559   11.50030124001468    3.79605432119818
C         1.46876379240395   15.29239636045998    5.63151234765387
H         0.63121232774663   15.87485816963304    6.04107542681383
C         1.62723017838615   15.65555576659672    4.15630198244150
H         1.95000640713452   16.69468270405968    4.09118404328072
H         0.69227306596904   15.56986364932866    3.61030427416520
H         2.37765233633144   15.04499784474951    3.66378921167159
C         2.71952830954811   15.70001276788241    6.40619637396679
H         3.61459647837652   15.29432795227437    5.94124388804783
H         2.65463322853965   15.34885063573604    7.43409620143946
H         2.81216115450703   16.78510619916262    6.42039904855109
O        -0.44061773489388   10.27953827736386    9.36813338918903
H        -0.90278611463752   12.00095027145237    7.88920289182124
C        -0.50265752407721    8.94107081273913    8.90444599890989
C        -0.14564414636368    7.98658691607761   10.04196325899332
H         0.78516780847226    8.27766237487200   10.51908824393854
H        -0.05776449773373    6.97099227944465    9.66426478434308
H        -0.93249986791966    8.01593910747529   10.79246179569399
C        -1.94481715999133    8.66732525830855    8.45092803131198
H        -2.61656565546558    8.88608911498554    9.27894526490181
H        -2.07338846728422    7.62995375580238    8.15535544982184
H        -2.20846073732060    9.31973027926733    7.62136075833326
H        -1.35116708172931   13.99853075699087    7.71130812024126
P        -0.95363893960013   13.53197300589725   10.52719500307141
C        -2.39217170018439   12.37001687231700   10.87757557647051
H        -1.89470434686323   11.39593920364918   10.78214837657269
C        -3.04085088501645   12.46377165288428   12.25623632726621
H        -3.63781498744899   13.36867814432301   12.34310244121450
H        -2.31143684676564   12.44291310657265   13.06123940328084
H        -3.71116675916444   11.61450483361962   12.39240326176114
C        -3.47350780401384   12.42240079680572    9.79984829927684
H        -4.10082356802917   11.53327272991207    9.86556561404877
H        -3.03040496123792   12.45189461996137    8.80814448188326
H        -4.11310982238616   13.29316721881274    9.91456325926453
C         0.16000847688838   13.13004236813009   11.98835845931679
H        -0.39020806991475   13.40773684463405   12.89370083756484
C         1.43618386559942   13.96485420026665   11.92006161311883
H         2.00350361232934   13.86007710318367   12.84487859774008
H         1.21949330541162   15.01894877117448   11.76308132654389
H         2.05981847860060   13.62773316148620   11.09564256986610
C         0.51687861527150   11.64923354089334   12.06927416716948
H         0.87911122829375   11.28879036505693   11.11019134338007
H        -0.33825250038835   11.04171147320142   12.35479373986160
H         1.30045850065124   11.50051236739059   12.81263738604891
C        -1.46880899485724   15.29214587248480   10.97811239088250
H        -0.63147898704173   15.87470741778556   10.56823320847984
C        -1.62680469517782   15.65552728234144   12.45331494231432
H        -1.94956485692330   16.69466758754043   12.51850332571768
H        -0.69165593727365   15.56987299324652   12.99897845334338
H        -2.37702796904207   15.04498166509639   12.94614471199830
C        -2.71987311534381   15.69984642518536   10.20393163139120
H        -3.61474764627520   15.29414473382949   10.66922988752588
H        -2.65536170214644   15.34858739874968    9.17604454842067
H        -2.81260003500875   16.78494326680946   10.18964933053888

