104
CSD_code = FEYVEK | q = 0 | S = 0 | Stoichiometry = C54H45CuIP3 | MND = 4
I         9.51247441596390   -5.49194161895603    3.05404133751494
Cu        9.51246153631986   -5.49201343998078    5.58709822187525
P        10.96622114981825   -7.05874980050733    6.57616824413966
C        11.56808604898822   -8.58030050313953    5.75011528603300
C        11.33628335731169   -8.73013736281557    4.38793234619513
C        11.80911218650182   -9.84427773826939    3.71750958911289
C        12.52085782791060  -10.81367859482491    4.40183545881966
C        12.76959725115656  -10.65985244832725    5.75691746357048
C        12.30244364189216   -9.54786522532645    6.43041476526226
C        12.58233112639035   -6.20645363944395    6.66461211297347
C        12.83827903658927   -5.27774549879314    5.66006178008434
C        14.04480701730938   -4.60367306603742    5.61435533128504
C        15.00903796025243   -4.85683201288772    6.57547849825134
C        14.76796983759009   -5.79581983693937    7.56624196640625
C        13.56475085680242   -6.47518454018432    7.61148559389981
C        10.69894186697928   -7.65076753707719    8.27514360378327
C        10.98742907686770   -6.83078005856777    9.36282269762214
C        10.68268852516043   -7.24248369329584   10.64697423023613
C        10.06303394594458   -8.46337482602014   10.85868588117975
C         9.74146656334015   -9.26952043874342    9.77743994801205
C        10.05175464515716   -8.86658998889228    8.49232445757276
H        10.79037594823795   -7.97472741006975    3.84392144739599
H        11.61968763143171   -9.95078670425891    2.65981599431254
H        12.88797854103869  -11.68655434777583    3.88212826810234
H        13.33476650841349  -11.40991276014076    6.29172266143998
H        12.50410484227662   -9.43609602275667    7.48658810073972
H        12.08994153200924   -5.09337223869635    4.90119378284091
H        14.22649870270097   -3.87906863176882    4.83393669822612
H        15.95052987902380   -4.32774166814481    6.55097189277172
H        15.52573635756492   -6.00364409585001    8.30826850258325
H        13.39236300036445   -7.20891643570685    8.38618731487055
H        11.45823293454696   -5.87234496088798    9.20198493798342
H        10.92741771615660   -6.60225278168083   11.48218840524531
H         9.82513409771026   -8.78494684909883   11.86217322050496
H         9.24469722910174  -10.21605145901687    9.93457039942637
H         9.79816006700611   -9.49735751061733    7.65146136917285
P        10.14259344141220   -3.44941714753823    6.57551495510482
P         7.42864815217940   -5.96769624434795    6.57593357871145
C        11.15943268643215   -2.16737457561459    5.74961677828111
C         5.80993694768631   -5.72806142245784    5.75006358115508
C        11.40529187261619   -2.29317455046209    4.38747069587774
C         5.79593593250808   -5.45229562415908    4.38790414382763
C        12.13381758053684   -1.32659155612241    3.71717850621798
C         4.59458035807410   -5.30458876077010    3.71763555769329
C        12.61735590355252   -0.22550970082782    4.40159883500201
C         3.39925432153056   -5.43626101158252    4.40209122522273
C        12.35959892608264   -0.08705604914091    5.75665472847704
C         3.40824137281493   -5.72870281762705    5.75714825519154
C        11.63008651431291   -1.04764323408725    6.43001673136288
C         4.60489718465115   -5.88024590356631    6.43049069124771
C         8.59633358099971   -2.47612802755182    6.66400421760413
C         7.35878731326665   -7.79344621460603    6.66428556318296
C         7.66395205435730   -2.71903078489464    5.65962452798994
C         8.03521975729564   -8.47939061272707    5.65977520578934
C         6.47679809117459   -2.01138839272855    5.61408078794035
C         8.01583740189059   -9.86131086485407    5.61404706238147
C         6.21392257180160   -1.04975713157576    6.57519892010047
C         7.31445930881459  -10.56984887345926    6.57510303379714
C         7.14777666678405   -0.78880572754562    7.56577740866547
C         6.62165798048869   -9.89165219702928    7.56581000515548
C         8.33785342157577   -1.49094421966558    7.61086168553474
C         6.63481907647818   -8.50995192094948    7.61108370696509
C        10.78874284519462   -3.38510180900231    8.27456890491351
C         7.04978171134806   -5.44035357231185    8.27499524162915
C         9.93420397358909   -3.54547717329531    9.36209278789058
C         7.61574122883074   -6.10031031372579    9.36256361651451
C        10.44291371471403   -3.60373603372304   10.64631830719178
C         7.41175882647385   -5.63062260872912   10.64677604570770
C        11.81002715084951   -3.52991447897973   10.85825134854676
C         6.66437661125627   -4.48350017717365   10.85865687222414
C        12.66911137203194   -3.40501620753928    9.77716923544100
C         6.12691605322531   -3.80183933497444    9.77752688764785
C        12.16522734361621   -3.33757259086101    8.49198065844206
C         6.32053751942760   -4.27193451906127    8.49235034085483
H        11.02414405872502   -3.14365002217431    3.84338845339974
H         6.72303674588430   -5.35724623200153    3.84379557891442
H        12.32092154912912   -1.43734784472080    2.65950998506268
H         4.59693809075670   -5.08719432412987    2.65996140082223
H        13.18979573483282    0.52888356635246    3.88199558983692
H         2.45970814717277   -5.31764726092236    3.88250657304605
H        12.72651191598203    0.77740399848025    6.29154422814082
H         2.47614260297800   -5.84310720781384    6.29205688756687
H        11.43232405248969   -0.92893230902989    7.48617144113375
H         4.60097511199351   -6.11084716818771    7.48665005057055
H         7.87845619240416   -3.45928541777836    4.90075589168697
H         8.56908016795209   -7.92344242550970    4.90096527346457
H         5.75833736546362   -2.21650153209582    4.83378881106663
H         8.55262238486587  -10.38090580613052    4.83366363923382
H         5.28486857744284   -0.49911256991534    6.55082335974221
H         7.30200828445332  -11.64975087648376    6.55058204778889
H         6.94887277765439   -0.02863241099516    8.30778685548440
H         6.06277564578198  -10.44404122244221    8.30777982741881
H         9.05955214534873   -1.27324798695513    8.38545630602917
H         6.08549496898514   -7.99384821647671    8.38575718957410
H         8.86879914115521   -3.61694239072742    9.20107634918804
H         8.21025451793097   -6.98730703098476    9.20159821472978
H         9.76596234705779   -3.71214341128796   11.48139752868855
H         7.84391559827812   -6.16277553011612   11.48189773962150
H        12.20730635764711   -3.57530070293587   11.86179443426276
H         6.50496606769109   -4.11676217568775   11.86219148906064
H        13.73718564812923   -3.36191173781881    9.93448271439995
H         5.55564871343198   -2.89834173419730    9.93479579280105
H        12.83841301607148   -3.24154616764584    7.65125572401712
H         5.90100244059715   -3.73684771890756    7.65157817833422

