29
CSD_code = FEYWAH | q = 0 | S = 0 | Stoichiometry = C2H8N10NiO8 | MND = 6
Ni       -0.00000755036080    0.00005408182345   -0.00022724099326
N        -0.00001280024434    2.10949894197436   -1.67472222216537
N         0.00001526727094    0.81525633873617   -1.54685359637853
N         0.00003261132390    0.20890985962568   -2.70495197128117
N         0.00001547212146    1.10328306435971   -3.64038947022531
C        -0.00001758519366    2.27949326980740   -3.00231103696491
N        -0.00007018844431    3.55770746211063   -3.61913334645212
O        -0.00007432820065    4.51568030693056   -2.87263452412155
O        -0.00005455167523    3.60277802912591   -4.82629031189939
O        -1.51974269338694    1.45170973040637    0.76757560405853
H        -1.44045532524208    2.31834877381719    0.35238364773757
H        -1.48036141313787    1.55946806095154    1.72469774816060
N         0.00001910984893   -0.81507407883834    1.54665943771331
O         1.51985898884330   -1.45150831634430   -0.76723566284810
O         1.51971949166603    1.45170039321876    0.76763429165304
O        -1.51987344532092   -1.45153303876035   -0.76721709869295
N         0.00000288118702   -2.10929057197490    1.67445452113067
N         0.00002225341485   -0.20880287520954    2.70483804273164
H         1.44133833943487   -2.31798961888795   -0.35160914947613
H         1.48195530298816   -1.56019286469641   -1.72420984673770
H         1.44076571371542    2.31821738647357    0.35239940315029
H         1.48027646568950    1.55956082344711    1.72471851896601
H        -1.44136862235378   -2.31803500707653   -0.35163641790832
H        -1.48190385822685   -1.56016913555281   -1.72418612255934
C         0.00001097460022   -2.27940050943302    3.00203006909306
N         0.00000596027330   -1.10325860055343    3.64019963984215
N         0.00002798892236   -3.55775170013084    3.61856059513626
O        -0.00007612120907   -4.51549446212939    2.87175981389006
O        -0.00004833830372   -3.60316574322042    4.82569668544119

