35
CSD_code = FEYWEM | q = 0 | S = 0 | Stoichiometry = C16H14N2NiO2 | MND = 4
Ni        1.98553272629647    7.56488536394164    9.17749998998311
O         2.39622288119132    8.84162105229519    7.91003444784379
N         1.56992148408367    6.29508863337575    7.90497774849848
C         2.34784217435212    8.77889058717578    6.63429027634895
C         2.70379853255798    9.92139029419968    5.86656716193754
C         2.66205053952871    9.90197552027783    4.50143291753126
C         2.26697954596309    8.74985357198441    3.80515072995317
C         1.91994526809049    7.62753627017235    4.50363070206476
C         1.94978045625496    7.60773775062661    5.91256290519491
C         1.58884028153145    6.43574708167847    6.61417349270891
C         1.16821022027061    4.98525606244269    8.40956839001045
H         3.00603540395969   10.80364140952808    6.40919651306601
H         2.93652222667934   10.78639878727672    3.94430616776880
H         2.23980437098742    8.75656467248973    2.72637637176261
H         1.61396027934223    6.73095678168082    3.98183129166808
H         1.30278407433193    5.57744636489755    6.00170762845118
H         0.16725937718068    4.74415785612048    8.03074656210419
H         1.86386877603808    4.22598269038884    8.03127566811281
O         2.39622019227124    8.84162170553914   10.44496548945477
N         1.56991733232940    6.29508956728348   10.45002242468065
C         2.34784299236825    8.77889005332514   11.72070965865132
C         2.70380406495203    9.92138844959379   12.48843275750948
C         2.66205790588880    9.90197326537710   13.85356701550284
C         2.26698470722668    8.74985211393688   14.54984932159980
C         1.91994662449327    7.62753594051721   13.85136941756978
C         1.94978003954884    7.60773778759764   12.44243715078609
C         1.58883572147385    6.43574831426411   11.74082661753535
C         1.16818962714134    4.98526201430182    9.94543159006509
H         3.00604233857545   10.80363895626121   11.94580321275276
H         2.93653323545374   10.78639541479368   14.41069373977635
H         2.23981084078780    8.75656297452991   15.62862371611934
H         1.61395999708066    6.73095705612620   14.37316889564586
H         1.30277494921317    5.57744915872643   12.35329256323106
H         0.16722227809205    4.74419245696491   10.32422810523926
H         1.86381853446332    4.22597402030877   10.32374935887118

