39
CSD_code = FEYXEN | q = 0 | S = 0 | Stoichiometry = C15H17N5NiO | MND = 4
Ni        4.44667754503147    6.07520892357853   18.55755483104668
O         4.06813527984630    7.21624265803036   19.92979112504967
N         5.21684996974141    4.82642526321817   19.71491971706898
N         4.84015425573460    4.75390926223894   17.05275101437901
N         3.76843485697870    7.26745189946041   17.35157443765812
N         3.22889038967318    8.30672020146195   17.46051537011704
N         2.70092559607493    9.30644857446443   17.38546241703639
C         6.07904578101426    5.18944992821258   16.39807204174618
H         6.40713634527501    4.44632221922333   15.65942790375608
H         6.87206361848438    5.33485876248389   17.12995481448847
H         5.90173592510017    6.13833916778750   15.89447519141791
C         3.81061931825504    4.59051768512942   16.02208274524276
H         3.66204536175784    5.53662778611044   15.50632258216067
H         2.86671732738469    4.30073820938948   16.48095058375623
H         4.11009833786472    3.82363945982627   15.29706799931302
C         5.04486869173815    3.46456718708213   17.73259147015551
H         4.06081273402639    3.04689984922665   17.96322869809018
H         5.58076602281434    2.75933306843291   17.08078347593596
C         5.79822252989674    3.67646297683282   19.04423041235954
H         6.86180818880277    3.86853431854589   18.84919220754520
H         5.73250690718163    2.77389638035966   19.66704533684222
C         5.30379450431970    4.88885909870437   21.00829864977784
H         5.78413728526750    4.04839994468777   21.50857558628836
C         4.83894792623820    5.94890811663384   21.81882412887838
C         4.23925688944047    7.07607975659257   21.19075053527533
C         3.78538861935470    8.15782595089085   22.01415110383961
H         3.33895780166727    8.99702196996505   21.50301991030823
C         3.91426901132103    8.11992538327104   23.35864392571558
H         3.56678563697336    8.94581707475658   23.96344529276275
C         4.50148741437147    7.00646726059568   24.01848542619236
C         4.61708797024360    6.99234929784994   25.41727410345231
H         4.25236067743497    7.84448624638879   25.97306085600973
C         5.17736387077737    5.92524392919646   26.06965616165956
H         5.26371707174908    5.91946135393713   27.14581557791156
C         5.63685748422527    4.83823969149345   25.32603660688590
H         6.07808953247285    3.99229615865969   25.83333393872894
C         5.53421454929618    4.83084605833669   23.95678856696412
H         5.90283836095618    3.96394912061917   23.43004494825484
C         4.96793041121447    5.90862980632482   23.25310030592873

