41
CSD_code = FEZDIX | q = 0 | S = 0 | Stoichiometry = C20H14N2O4Pd | MND = 4
Pd        5.96138476683447    7.08971765396291    0.85073732326908
N         5.14794424607502    8.68368118192707    0.06359107685184
C         4.85564890114768    9.75454368358846    0.81608561179007
C         3.95012793788972   10.72062637640557    0.37805609286827
C         3.37304345560850   10.60016115528237   -0.87229347366414
C         3.74768556179731    9.52778570866700   -1.66956405331832
C         4.62911100886427    8.58930665396069   -1.16027924962124
C         7.28944706492626    8.22650562138036    1.73624908645436
C         6.95164608076755    9.48696068693926    2.24318412466968
C         7.90129363701741   10.26019324336863    2.91643217288479
C         9.21019467326946    9.82525372638010    3.01466481038395
C         9.57135928631986    8.60376455896092    2.47689741692211
C         8.60975042914315    7.78607862869738    1.87630654568806
N         6.77679480418494    5.49637334973638    1.65801650978286
C         8.09180982404982    5.30742496746944    1.48268555675413
C         8.64922542064886    4.02916003397096    1.51666364745541
C         7.84161262265053    2.93766456464298    1.77261007474324
C         6.49505662826932    3.15907918920751    2.02623079106127
C         6.00333982567509    4.45091757008946    1.95084495199277
C         5.59211290825506   10.05624252528977    2.09696582348034
O         5.12625237965468   10.85337626916638    2.88538446664075
C         9.05735554656440    6.46078863501414    1.38436921830783
O        10.20384554360931    6.25346968595044    1.04278971692462
C         5.01669746881957    5.27336258390417   -0.94894138193199
C         4.36975261524051    4.13441209608734   -1.72511727687524
O         4.35835752348094    5.77132415711489    0.01066878626093
O         6.14422546377938    5.68650807256420   -1.27889778625111
H         3.72551757665340   11.54679936931515    1.03525396931745
H         2.66295290552770   11.33229719107406   -1.22484980148191
H         3.35562804548896    9.41087138770780   -2.66723438856624
H         4.94130748645710    7.73578902262161   -1.75392737634938
H         7.59487016455328   11.20602053490916    3.33905932437334
H         9.94856898213057   10.43921698202337    3.50747539160314
H        10.59229979232530    8.25388533737070    2.52461551033207
H         9.70841678414125    3.92916418991141    1.33547067745703
H         8.25063970400630    1.93909551469515    1.78623258955800
H         5.83044519435117    2.34343603707031    2.26336745404708
H         4.94925429482180    4.65799347213982    2.11159461205278
H         4.15588685407041    3.31027975741342   -1.04817379502466
H         3.42860913350813    4.47706565435860   -2.14911617528129
H         5.03492745740331    3.80190296965912   -2.51610857555292

