48
CSD_code = FEZHEZ | q = 0 | S = 0 | Stoichiometry = C21H14BrN4O7V | MND = 6
V         8.04628684118781    7.78055308839866    6.77046212974793
Br        7.25180866389006   12.05528168710997    5.92540730366491
N         6.36102315463759    6.76230024487727    6.44320188344701
N         6.38268015747771    5.49184872658784    6.84094664916322
N         8.51635929873856   -0.06250300170231    9.25056200469760
N         9.42679023897997    8.58651072555289    8.91529728924126
H        10.28794137939358    8.96306609821953    9.30251115673651
O         7.05451201720768    9.18718220412724    6.59345293316244
O         8.39641670465071    6.12240972721497    7.61650746661712
O         7.61521519108576   -0.86887717617142    9.16792874302956
O         9.61606254087662   -0.29937120782188    9.70242804593021
O         7.26593586019265    8.06552825968303    8.98237386129564
O         9.39247199139306    8.44454558418930    7.59002490343618
O         8.51747873504413    7.49830436524138    5.35447269237441
C         5.25401531376781    8.50188402924040    5.22595819221342
C         6.15551922475567    9.48516322801849    5.71574699822727
C         6.01208658376189   10.80075856100154    5.24435756538088
C         5.04133070915439   11.15271290743035    4.33529824519236
H         4.97099614619099   12.17321541797456    3.99181604493070
C         4.15698860359747   10.18033568614069    3.87215170017090
H         3.39395952304309   10.45659620888154    3.16201964136769
C         4.25734638528363    8.88045446843054    4.31434938221350
H         3.57372133779111    8.12793538049971    3.95109725054624
C         5.37640044566801    7.16370452940310    5.70863806596160
H         4.60850602503791    6.43624316201466    5.44143899051118
C         7.51926790323991    5.21894337822140    7.43612721789746
C         7.76626283940957    3.84089014182272    7.89540405523239
C         9.02205882229696    3.50988736692055    8.40698911605583
H         9.78848333344573    4.26997533072597    8.44140490984121
C         9.27346343854725    2.22810064804315    8.84985811512523
H        10.23618667151033    1.94461750578514    9.24748578878030
C         8.26063442883222    1.27782045013816    8.78087174748526
C         7.00552047546689    1.59351350930563    8.26919863478239
H         6.24702085323022    0.82644948384773    8.22951428487506
C         6.76022700775949    2.87584288427377    7.82558480309237
H         5.80057265814165    3.15483690145870    7.42275680507215
C         8.30106996902791    8.63345073152882   11.05769980831560
C         9.45651073781149    8.49462461935676   11.82479171881051
H        10.38567430229495    8.18365732658630   11.37073616937313
C         9.40829623236573    8.71709499118634   13.18889681083123
H        10.30353120188569    8.60333575327581   13.78128246540705
C         8.21735221196472    9.08124923174188   13.79708744476896
H         8.18879149196456    9.25743673456075   14.86166123817209
C         7.06369234825890    9.20895112969586   13.04092329880190
H         6.13365060273295    9.48433425149167   13.51400141178214
C         7.10235554047547    8.97991802053091   11.67858332044493
H         6.21309435209155    9.07079841820266   11.07335198287038
C         8.27742950443880    8.40378828675953    9.59623971292188

