41
CSD_code = FEZHUP | q = 0 | S = 0 | Stoichiometry = C16H16MoN2O6 | MND = 6
Mo        1.55908088141192   -0.36117529194885    8.31778052927781
N         0.76296449948525   -1.81477564250682    9.71945473345521
N         0.14397288072213   -1.24565038297822   10.78644952108315
O         1.79151130328642   -1.89992892142549    7.35496891240572
O         0.46804036111312    0.61812827324602    9.55869853894186
O        -1.06229169270267   -1.00851690393768   13.11968636344676
H        -0.61773998642017   -1.46152904216466   12.37118830997966
O        -0.91775950488062   -0.90203109273742    7.47345893938949
O         1.23218572030790    0.65185192883159    7.05971835431056
O         2.99503042779294   -0.18715091386377    9.10382973611926
C         1.66088141948524   -3.81554532585538    8.75374211668365
C         2.05752443154523   -3.17189762354438    7.55159080123685
C         2.72302995501769   -3.91881159153496    6.56931222077397
H         3.02278494315660   -3.40888775130564    5.66481549443305
C         2.98689704222134   -5.25679850036564    6.76516060189428
H         3.50339848054246   -5.81708293626872    6.00044843736081
C         2.59132564008539   -5.89391959075223    7.94001645157711
H         2.80129796869685   -6.94266830824140    8.08071908395219
C         1.93705601379041   -5.18235247478063    8.91757422397893
H         1.63095023909030   -5.66734001388317    9.83302125510607
C         0.99675946604163   -3.08499387974285    9.78404902566404
H         0.68937432229931   -3.62124526944760   10.68321126960125
C         0.05197866038126    0.05538028711531   10.64689760699157
C        -0.54237724082315    0.87194013079443   11.70055165441958
C        -1.06610956369300    0.31031872182587   12.87906125859428
C        -1.62840758994487    1.15127175098623   13.85509610155187
C        -1.64892990121917    2.51533151665022   13.63920762946042
H        -2.07951469235241    3.15815255152492   14.39308548774418
C        -1.12469642569561    3.07582667770070   12.47841496044785
H        -1.14825768353259    4.14507552247674   12.33804861465286
C        -0.57610432131507    2.26133901450382   11.51769622873168
H        -0.15224689610328    2.66342388780302   10.60799654302494
C        -2.18109504023727    0.53184943050983   15.10004504543572
H        -1.39719683298746   -0.01418010599747   15.62190360510322
H        -2.95855392349222   -0.18607964718694   14.84504141359850
H        -2.59285035006299    1.28814188583430   15.76175928337972
C        -2.03420187081783   -0.18745537686519    7.98277817650611
H        -2.82333450876037   -0.13338519091948    7.22583368069182
H        -1.75525190656649    0.82527032607685    8.29096972050935
H        -2.40825952857332   -0.73924441982976    8.84600218600588
H        -0.53426519629194   -0.36855570780748    6.75691588248395

