59
CSD_code = FEZKUQ | q = 0 | S = 0 | Stoichiometry = C26H24MoN4O4 | MND = 6
Mo        4.95641420364544    1.39739103930153    3.38640656790794
C         6.40554685010652    2.05484312205253    2.27780577640224
O         7.27916816829499    2.46352091941177    1.65724418031836
C         5.10128952411799    3.04631173238518    4.40051080543442
O         5.23842728846475    4.02480194043159    4.98082382784401
C         3.71248228720313    2.33028195017888    2.19001746947443
O         3.12438392957718    3.03088155302520    1.49923710753962
C         6.34754247506765    0.70087711665965    4.57947647589164
O         7.23901431065183    0.45891381258644    5.25268309249235
N         4.76424139871482   -0.47036864392481    2.37603796738603
N         5.92892765778446   -2.38242348430007    3.97255991420323
N         4.63178954522676   -1.43340041668686    6.03562672099424
N         3.41981247899805    0.53493709651483    4.59116444096866
C         6.00769027104637   -1.01510308617000    2.01324815269847
C         6.61244788611702   -1.99362083925414    2.82433478393222
C         5.79882575170084   -3.59465851378372    4.54249574026773
C         6.34440813541676   -4.80745037177075    3.85201677394506
C         5.10445097328810   -3.72033138274517    5.71665232363025
C         4.55105916716509   -2.64661850181688    6.47430729598715
C         3.83492805155061   -3.03665280432588    7.74306952613230
C         4.27198276867360   -0.28710158913648    6.70972845356021
C         3.66026131085964    0.73766289626304    5.95913630891820
C         2.52318070981650   -0.27763186961127    4.19506302679680
C         1.58583094619779   -1.03513820133083    5.08617511733162
C         2.40931034592604   -0.51990247090313    2.71453944673123
C         3.69059651296904   -1.14752369314070    2.24602513101721
C         3.61054553359696   -2.53898023247201    1.69382852285667
C         6.64338355983509   -0.58507603207881    0.85673970941621
C         7.88573927078617   -1.08821920233827    0.51443814963420
C         8.50387675365895   -2.01842447517757    1.33327650172228
C         7.87649258271653   -2.46438456802622    2.48227699226775
C         4.61934426590579   -0.01865135134788    8.03526379196982
C         4.30972936750075    1.19684914169289    8.61323814491224
C         3.64508459147078    2.17100875354702    7.88612957432834
C         3.32923898654762    1.94256598249924    6.55851030517537
H         5.44241754376870   -1.65006991621191    4.52359081406342
H         5.72818968517853   -5.67443704994026    4.07736272632116
H         7.35451087619254   -5.02115836800183    4.19956158631976
H         6.37727619734287   -4.65989276294907    2.77474641935488
H         4.98010561347097   -4.71078646558178    6.12506181304695
H         3.23548160320131   -3.92942559040561    7.57334253023065
H         3.19211877349506   -2.23259566695771    8.09522289225436
H         4.56119093851801   -3.26702984454175    8.52173962614450
H         0.57159567857171   -0.98917505424927    4.69221416971227
H         1.59540224736900   -0.62784234045186    6.09515542181431
H         1.88287673806918   -2.08373802579265    5.13381456696547
H         1.55194043543762   -1.15059390387669    2.48166731942089
H         2.30211262911208    0.45589306227797    2.21551570808894
H         2.77852577255851   -2.61998133814349    0.99616533855249
H         3.43904195671961   -3.24919961319883    2.50411886301165
H         4.53078149183089   -2.81201312306491    1.18157371215283
H         6.15073529458393    0.14663888902798    0.23093047112777
H         8.37295559655515   -0.74544444467750   -0.38469628812579
H         9.48394999879229   -2.39416909163549    1.08239289354471
H         8.37548041311562   -3.16550438377769    3.13152796035937
H         5.16185458658815   -0.76490120135731    8.59589050656478
H         4.58826375848600    1.38392011956477    9.63962249406875
H         3.38789582279288    3.11306328844281    8.34463974957104
H         2.82644848763883    2.69895749929216    5.97055058533728

