79
CSD_code = FEZMEC | q = 1 | S = 0 | Stoichiometry = C30H40Br2N2OP3W(1+) | MND = 6
W        -0.40071412761562    4.51021193196075    2.90765353409967
Br       -0.66649604957763    5.85467701511082    0.85923925126248
Br       -2.91768199667127    3.84409036944501    2.88668816042162
P        -1.22825775679241    6.51086902882379    4.10775284431396
P         1.99078997339588    5.08575968257717    2.91528045427470
P        -0.16496087701434    2.52863841058656    1.44405630532915
O        -1.10489122607345    0.22752815457490    8.65066886440170
N        -0.18588865868799    3.51798370159449    4.42741837191757
N        -0.37189565764788    2.71888771027159    5.43634016060942
C         0.64472962668944    1.99011547191584    5.96835933102008
C         0.46815934605062    1.14358883053838    7.03333595127364
C        -0.79859012774965    1.00425269742973    7.61346661161626
C        -1.84451331047925    1.75243746925025    7.04191881638886
C        -1.61619949913893    2.58071156582454    5.98466832497215
C        -0.09945355481362   -0.56347236274539    9.25515202576596
C        -1.90894096041319    5.98289587923201    5.71132496288037
C        -1.01344733808334    5.68525661354873    6.73642265932854
C        -1.47401206460762    5.21636660888644    7.95222971108715
C        -2.83282664300520    5.02929290949431    8.15330245990226
C        -3.72590091051233    5.30884082095112    7.13304988012820
C        -3.27025325183094    5.78072185285688    5.91315269314367
C        -2.61887633171599    7.38060021643488    3.29597431464475
C        -0.23329584059707    7.98339947308670    4.58852679603535
C         2.59570455613139    6.05402298566089    4.34442000883887
C         3.17329829818179    7.31479984518427    4.24739613741016
C         3.58173873701104    7.98028986671461    5.39169310794725
C         3.41774829849964    7.39911939373970    6.63762765915764
C         2.83451632652566    6.14547084560025    6.74337473536167
C         2.42019151740351    5.48324411385518    5.60353029977959
C         3.19833523674789    3.69594383556330    3.00532445844007
C         2.66697496271349    5.98035923439306    1.47589055219303
C         1.33968860096542    2.20006423979726    0.46085884929915
C         1.61889204447338    3.07744605856326   -0.58654244781268
C         2.75270276415661    2.90743042597740   -1.35891130167591
C         3.62447952385742    1.86399525767502   -1.08960142915715
C         3.35841089334320    0.99462154539660   -0.04502001656449
C         2.22454712269423    1.16201435914565    0.73208769957089
C        -0.44913868076198    0.97403698349294    2.36912633162742
C        -1.42481449231053    2.35547501196190    0.12322984328708
H         1.60880587059330    2.11000821713886    5.49477856768848
H         1.32171296298783    0.59836702992426    7.40095865298261
H        -2.83717313508438    1.66243437191636    7.44976548042116
H        -2.40522052098854    3.15441173095014    5.52140938272407
H        -0.59647721587121   -1.10105417810351   10.05970315673197
H         0.32103961043850   -1.28105379532778    8.54576227850206
H         0.69804029520507    0.05721621599590    9.67208661157868
H         0.04692211626067    5.83139040434019    6.57749640573134
H        -0.77401966157157    5.00025951165932    8.74609889187426
H        -3.19234525359362    4.66784853080452    9.10430049000544
H        -4.78399556401328    5.16054659320652    7.28338282496637
H        -3.97759004115900    5.97716047202775    5.12228580969361
H        -3.09236541295756    8.05563460759702    4.00957755201558
H        -2.22116621801946    7.96252628356339    2.46208126374495
H        -3.35722080380571    6.68044308836466    2.90438526911932
H         0.58453195640114    7.71326399730710    5.25170007588948
H         0.18133290117131    8.43668914570948    3.68689477609885
H        -0.87797722814426    8.70614660955804    5.08808211500184
H         3.30697459386027    7.78546217235361    3.28570329604239
H         4.03182220897265    8.95763028040496    5.30784664455412
H         3.74052230558404    7.92064086240821    7.52508430738756
H         2.70237259716492    5.69013756440973    7.71398258999115
H         1.95025301413423    4.50967333669616    5.67756083318497
H         2.92847874447059    3.00899005368020    3.80551445520679
H         3.19418141159920    3.15191892371177    2.06160291112014
H         4.19773729010166    4.08855515849842    3.19461822173966
H         3.73612091203586    6.14328973011485    1.61132939948847
H         2.50704842900289    5.37030229988401    0.58551486922565
H         2.15532883137817    6.93231889513216    1.33484583583104
H         0.93653496059210    3.88885166362439   -0.80534267428807
H         2.95394580186511    3.58579957843255   -2.17404518627165
H         4.50728653542925    1.72716573653399   -1.69439668523131
H         4.03438348311928    0.17955272955174    0.16552060612176
H         2.03153402409797    0.47715360553581    1.54458118136364
H        -1.43940919455220    1.03345591278343    2.82574561549456
H        -0.42079662589319    0.12244512929957    1.68914945765838
H         0.29665165973344    0.84585019840288    3.15405477294026
H        -1.43941163079101    3.24077332270330   -0.51338187427160
H        -1.18613906644032    1.48137934713302   -0.48359290876086
H        -2.41141341604899    2.23262660774542    0.57088775420790

