38
CSD_code = FEZQUZ | q = 0 | S = 0 | Stoichiometry = C14H18I2N2OPt | MND = 6
Pt        2.99111549522456    2.77039899155879    2.36237164525315
I         4.09357728789942    1.75843909486892    4.56636962740574
I         1.73945172162876    3.66865832129222    0.19706138473546
O        -0.69991045131214    7.58379742609352    2.62662674645344
H        -0.95429746781098    7.12864852609234    1.81408109782685
N         1.67961063169516    0.89640251803797    2.28883415486389
N         1.05389726467339    3.18593195479078    3.69637019050013
H         1.37044850976000    2.72308168653695    4.55207981474274
C         4.56494656745868    2.17348207108917    1.15526730021519
H         4.97113133982180    3.00909478098782    0.58571799570869
H         4.15702621675841    1.43548646278979    0.45895067511200
H         5.36035021765633    1.72459068992631    1.74912419015863
C         4.00548449632858    4.55001608194725    2.62865648662321
H         3.44781954321799    5.09162941194054    3.40011479265105
H         4.03218899895983    5.15233570799272    1.72146706596974
H         5.02703164568552    4.38645015928562    2.97211855370062
C         2.11943187060962   -0.30151452733564    1.92548523261994
H         3.15221908660638   -0.35964717517775    1.60804341729052
C         1.32281904655651   -1.43084462951234    1.95430762950679
H         1.72299007125232   -2.38363040868848    1.64885003643019
C         0.01229287306363   -1.30303245368518    2.38759180518075
H        -0.64291718797650   -2.15971149742774    2.42709917495292
C        -0.43955702608077   -0.05611688872677    2.78065958355852
H        -1.44950320455566    0.08388933911375    3.13342053309555
C         0.42581132145417    1.02935790930418    2.71979753710374
C        -0.03818076983533    2.40572869570050    3.11900954192053
H        -0.40216573819511    2.90699461175334    2.21495635607173
H        -0.88306908204026    2.32288195620613    3.81781116393918
C         0.80570155875632    4.55147143574688    4.00596323968831
C         0.10426131999932    5.38920204419070    3.14777472993228
H        -0.31702342942496    5.02081466979176    2.22373490705708
C        -0.03465798051455    6.73816654719715    3.44994327131161
C         0.50889862103993    7.25152317974319    4.62412827374990
H         0.38558467420164    8.29971766669343    4.83999981104544
C         1.19781034077717    6.41303535393761    5.47687625958927
H         1.62552201459885    6.80565144002800    6.38640278284885
C         1.34830019147409    5.07090686622615    5.17873845757072
H         1.90185941058828    4.42771197969228    5.84859453361602

