38
CSD_code = FEZRAG | q = 0 | S = 0 | Stoichiometry = C14H18I2N2OPt | MND = 6
Pt        6.92407392601756   10.12280026150251    7.26853937889087
I         5.14380446088201   10.74235956504327    9.15421363776773
I         8.81264823856840    9.61687590524348    5.46714680347978
O         9.22790344754655    4.20088419653504    9.95288941023915
H         8.59372947786222    3.86080877734667   10.59558937046182
N         8.03118638792225   12.05094996286236    7.80120307709452
N         8.43282313503522    9.64093438387942    9.04565160850721
H         7.85148710098184    9.99240338145410    9.81090569343492
C         5.70388293073417   10.79935131944861    5.73617614276281
H         4.73211470374452   11.10873462921674    6.11885499150000
H         5.56144635836069   10.03573317283381    4.97234073367689
H         6.21749505368942   11.65450510553551    5.28878612156267
C         6.05091695361560    8.26951978273562    7.00711114296362
H         6.38739086339521    7.66704455158871    7.85701514938768
H         6.37033202230883    7.78842143445126    6.08390405200093
H         4.96278498253296    8.32586518774382    7.01658990674403
C         7.62685019995699   13.26282257625482    7.44234345862087
H         6.68958431879810   13.31752054398071    6.90421025361111
C         8.34240255995195   14.40745469694604    7.73882336754565
H         7.97681064974451   15.37129142542884    7.42475710156693
C         9.52834522635357   14.27936942411846    8.44556214827380
H        10.11956495056036   15.14728279824400    8.69453397900272
C         9.93640807719752   13.01734921236030    8.83738323925923
H        10.84679363300903   12.87582804269829    9.39883728093259
C         9.15824813633100   11.91670908074949    8.49850403902849
C         9.58443391820753   10.52697226440891    8.89351150306944
H        10.23543327836038   10.13963035675574    8.10152177049384
H        10.17839247363943   10.57367644448235    9.81812504829957
C         8.69274745985114    8.26273530412333    9.29578644889597
C         9.67417506055676    7.54703668139844    8.61620322931463
H        10.30738234787480    8.02424766028962    7.88575298399002
C         9.83746539874049    6.19658795746014    8.84565895593112
H        10.59242368279829    5.63802268887774    8.31714768774310
C         9.02545950214244    5.53019967348394    9.75811188444110
C         8.04363656857205    6.24076004335055   10.43774453353525
H         7.40197680897529    5.73734087892495   11.14822660272575
C         7.88489398781077    7.59397674334684   10.21128323809576
H         7.11065171737509    8.13139388488938   10.74235402515181

