46
CSD_code = FEZRAF | q = 1 | S = 0 | Stoichiometry = C16H22ClN6Ru(1+) | MND = 9
Ru       24.01140550773395    5.96172899187879    6.22850901716834
Cl       22.10487263700669    6.71471346284734    7.37007540650387
N        23.46343551623582    4.15508799516025    6.99148079033400
H        23.82033884142159    3.75036784189784    7.85283283949794
N        22.39441651600764    5.32178530334637    4.89702768683140
H        21.70960258112426    6.06842479585966    5.12616633526015
H        22.54264306706037    5.29608119094720    3.88122412428836
N        21.88035293971942    4.07857657035220    5.33584330431483
N        20.22439491118867    2.42403482456104    5.04709549316943
N        20.20390610933221    0.75645244312499    6.76784249643993
N        20.94030614447498    0.56607283072310    7.84945212485393
C        26.29911224641380    5.58254808403018    6.49877453243754
C        25.83475784595304    6.56490066283520    7.41753966348750
H        26.08114660799532    6.46782582283063    8.47031918385622
C        25.20546888211360    7.74103826387550    6.95684541381367
H        24.94333851909068    8.51572944896501    7.67068455517294
C        24.95831637630620    7.95331688160385    5.58253466167221
C        25.33102104421662    6.92098955979712    4.68877147230608
H        25.19635997440433    7.06782062646230    3.62177615670230
C        26.02587993136614    5.76876878996519    5.13105587695317
H        26.41166197209709    5.06175962457510    4.40608881422890
C        27.11813421260996    4.42416935239925    6.96986805616804
H        26.97629146031614    3.55267815766594    6.33476588274341
H        26.88201737742513    4.16217351903366    7.99849542868590
H        28.17344437239017    4.69942790098813    6.93013003299472
C        24.34401496966482    9.24196533290421    5.08912264104030
H        24.19513650489577    9.89807877055295    5.95245865494074
C        25.28140261010829    9.94690780847318    4.10523866410728
H        26.26142244348587   10.10012318733016    4.55105523623967
H        24.87032002809521   10.91733022132775    3.84220191248950
H        25.40262942162047    9.37171990284566    3.19056703740464
C        22.97300187259780    8.97631894100441    4.46035032676684
H        23.06284087994424    8.34821764974603    3.57563857458397
H        22.51644039091527    9.91596011858404    4.16315380107494
H        22.32017129729059    8.49431239830931    5.18771889614299
C        22.42849485637091    3.55162802083685    6.48907703351108
C        20.81163650438321    3.49002304255369    4.68438915067864
H        20.46877131897962    3.99481747939932    3.79184212121233
C        20.67952848713695    1.84034540433163    6.18612006329493
C        21.78397717676441    2.36400287198054    6.94058973686530
C        21.90122216800231    1.48731786434542    8.01251988725251
H        22.57404074374072    1.46483448649983    8.84575490931459
C        20.65432276366320   -0.54432123589436    8.71182699937243
H        21.52629625134034   -1.19212593101956    8.80479276519502
H        19.83133514502585   -1.10052631383709    8.26867140223371
H        20.36346857197608   -0.19350296598980    9.70261083639982

