52
CSD_code = FEZSOT | q = 1 | S = 0 | Stoichiometry = C26H18N5O2Ru(1+) | MND = 6
Ru        8.46114515169577    4.53481811848787    3.94884074614457
O         6.82891699743364    6.76252624866687    3.35656479898451
O         8.74613462821776    6.84048651864581    2.19998384788822
N         6.70864562724087    4.93147618918094    4.68275518984752
N         8.09325740967415    2.87582526408146    5.29866677456647
N         9.59524961281244    5.53354537009712    5.28386778515464
N        10.15004552238638    4.27959807824182    3.15455391716875
N         7.89230289525938    3.49576002684177    2.31682759044361
C         6.12563396940736    6.05538683030299    4.24633927831803
C         4.87137689604714    6.44589238979368    4.69936638056895
C         4.23125728703864    5.63307634746119    5.62530495835919
C         4.83872022970619    4.46991202467112    6.07534116015340
C         6.09712330176118    4.13395841543141    5.58295671446708
C         6.89857549206798    2.95987945606299    5.93045743472722
C         6.49351162323567    1.98240196465467    6.83996698641984
C         7.32509929037422    0.90982185235573    7.10006711283975
C         8.54772229490727    0.83500034101947    6.44435842975865
C         8.88520496774729    1.83981521787322    5.55573484723942
C         9.20896966491520    6.17244029381753    6.39009348810658
C        10.08318433887904    6.85203582272843    7.21469834316468
C        11.43416953698522    6.87689541037312    6.88599540200084
C        11.84928094233724    6.21626224199582    5.74691755790765
C        10.91499142170541    5.55103591440860    4.95300219841215
C        11.23895606652202    4.84523622546568    3.71874556552261
C        12.48522369577820    4.74072371775337    3.10943573604363
C        12.59019838907918    4.05957304486277    1.90515010152436
C        11.45796500363045    3.51134667184379    1.31965443136347
C        10.23355883404760    3.64176099370997    1.96707017763867
C         8.93260246395988    3.17761985865140    1.49949512767004
C         8.72829463155453    2.47780802141048    0.31028223418982
C         7.45005220343995    2.10423346567751   -0.05407522052981
C         6.39443171683331    2.43471560787329    0.78870355973614
C         6.66271893028709    3.12489120724891    1.95397125414033
C         8.10212490049229    6.22614415562587    2.99192609011972
H         4.42860433150760    7.35471435425490    4.32975536397251
H         3.25719185796911    5.90930125453464    5.99516292388215
H         4.34070328540577    3.84104697963092    6.79345695732291
H         5.53987030862539    2.06560852373705    7.33426729858120
H         7.02884157597525    0.14486970966990    7.80036837666730
H         9.22481245771516    0.01507992153927    6.61864029717136
H         9.83029399037071    1.81604538348276    5.02526914511425
H         8.14941739198552    6.13995726753702    6.62240550056352
H         9.71431707894794    7.35694188823088    8.09224003803333
H        12.14217312015722    7.40328161968176    7.50567087341658
H        12.88874406652886    6.21695513066205    5.46361287157571
H        13.35656305669205    5.19043162505103    3.55519649699539
H        13.54695569658908    3.97107609377365    1.41680958159889
H        11.52960816002253    3.00431098369574    0.37204266644640
H         9.56792268508634    2.23818365298343   -0.32088847094917
H         7.27396620473503    1.57083553538046   -0.97430379389050
H         5.38036368065344    2.16626980212889    0.54240285860256
H         5.85690511357353    3.39628696670504    2.62827101483689

