52
CSD_code = FEZSIN | q = 1 | S = 0 | Stoichiometry = C26H18N5O2Ru(1+) | MND = 6
Ru       36.18231376598749    3.09561815033945    0.54017023418433
O        36.63434385775896    2.22531136220795   -2.41522999902316
O        37.67411925899025    4.27728293856417    2.86399898570519
N        34.97667025695625    2.28239394558893   -0.90471358621491
N        34.37091151985621    2.96160208091484    1.51851375248374
N        35.92828129631128    4.90815761550741   -0.37328383214918
N        37.80388919623176    3.15870491410678   -0.47702484378828
N        36.87214822148055    1.20275733254696    0.90116512998770
C        35.44724191418261    1.98310955997034   -2.15680665623252
C        34.52523784944474    1.40346158487332   -3.09518593561119
C        33.23350681521912    1.16388617992429   -2.74341851634857
C        32.79003136466087    1.48573655166140   -1.45305608409158
C        33.69066951268529    2.04239366407387   -0.56656692590851
C        33.35277388405187    2.42704342322763    0.80496318310321
C        32.08283944196307    2.26889174145792    1.36419640409712
C        31.84943891187270    2.66313584223295    2.66599673102322
C        32.89993442807032    3.21479545878724    3.38900313728027
C        34.13183514030159    3.34251216697788    2.77808947425237
C        36.26715599426669    0.20251737724149    1.53582681596433
C        36.80193197871804   -1.07085543503031    1.61857235895695
C        38.02705464709683   -1.31947652865604    1.01527327538555
C        38.66198986299734   -0.28619754739511    0.35069468120961
C        38.06611644764563    0.97268881881997    0.29928402606077
C        38.63165466977313    2.10822312031653   -0.43520328908771
C        39.84957828675225    2.15485502004856   -1.10779040518636
C        40.17696400111615    3.30347480086399   -1.81295799837666
C        39.29050924151048    4.36955189832259   -1.86032469035354
C        38.08609067470685    4.26806746962652   -1.17034306825884
C        36.98552613158130    5.23633798428850   -1.15754002522576
C        36.97019324751319    6.39641820111881   -1.92967345253898
C        35.86073482979990    7.22178473739952   -1.90625323109358
C        34.78279872450594    6.86718563765850   -1.10695226732874
C        34.86373648366261    5.70538089587098   -0.35982277046797
C        37.10292523394093    3.82839288277510    1.98070493269023
H        34.91059795691569    1.17394367068574   -4.07527280849574
H        32.54269633943855    0.72739719564075   -3.44892313092137
H        31.76829793526402    1.29791306800293   -1.17419561043557
H        31.28802209107386    1.83907998930806    0.77857651589107
H        30.87377025582412    2.54545425462416    3.10983964377678
H        32.76767854683950    3.53950795827435    4.40768831337938
H        34.96453625575575    3.76970527604559    3.32222716244511
H        35.31715681998224    0.43360793041600    2.00569494956334
H        36.26979850347789   -1.84725889506718    2.14323008108504
H        38.47445719809019   -2.29978890476552    1.05894174075660
H        39.60809007824875   -0.45288887349677   -0.13686397819058
H        40.52818451271854    1.31845155065208   -1.08873465651448
H        41.11568579499894    3.36113583709690   -2.34053609788981
H        39.53528506604511    5.25317737426418   -2.42574889087266
H        37.81659400326332    6.63993803186111   -2.55007863451735
H        35.83368424037781    8.12050036463233   -2.50180703164809
H        33.89600622225900    7.47778339857248   -1.06203903528245
H        34.04401108781483    5.40439692701571    0.28379592277069

