51
CSD_code = FEZTAG | q = 1 | S = 0 | Stoichiometry = C25H18N5O2Ru(1+) | MND = 6
Ru        0.54505300616876    6.66596675998969   13.89982788379858
O         2.16068836407625    8.30744379014672   15.56061019212855
O         1.05416393177908    7.44005334199491   15.73759016610924
N         2.02020917600966    7.75532384417023   13.35719810186456
N         0.58874334839974    6.30216622839193   11.89362847813165
N        -0.90811174353037    8.04693257054900   13.74762252953587
N        -0.87363163678329    5.66315363562128   14.63705570222135
N         1.56205748112297    4.98980725188494   14.34353410974674
C         2.62088734989329    8.43956650803895   14.33622782008583
C         3.71067615574996    9.26985260905935   14.03833519042487
C         4.12761091282343    9.34951190536634   12.72225266791121
C         3.48727031740422    8.62805960361042   11.71725415495885
C         2.41286458326645    7.82170980831788   12.07302354551896
C         1.57511203103669    6.97005873883533   11.22819832946321
C         1.74298825240964    6.82649248077888    9.85309415396095
C         0.89968058310815    5.99294711328456    9.14242105591359
C        -0.10098191725329    5.31657326007969    9.82999949491293
C        -0.21684174626195    5.50181288173507   11.19444687953243
C        -0.83886861132561    9.28055165175644   13.25125373603464
C        -1.90441535144514   10.16056920123403   13.26179555431915
C        -3.11080288398781    9.74403683693839   13.81060160524329
C        -3.19704038489451    8.46385285879903   14.32399058499272
C        -2.08164259966426    7.62855819818728   14.28948246065960
C        -2.05731319349904    6.27266220953136   14.83608047544684
C        -3.06750396523957    5.63044127755630   15.54661560322515
C        -2.82310912152946    4.36538547908173   16.06202098262319
C        -1.57454047481719    3.78056179701750   15.90439799821156
C        -0.59842880867606    4.46512402335528   15.18583225281536
C         0.79314412153134    4.06717489831506   14.97859903056520
C         1.32939364673541    2.85303970919480   15.40427589830471
C         2.66740801707234    2.58187103423105   15.18956279367385
C         3.44343452846476    3.53483570810138   14.54171189135238
C         2.84871879907871    4.71528934130002   14.13832230012230
H         4.19223229567224    9.81922463991039   14.82843425186819
H         4.96375919977247    9.98209460878971   12.47057482424535
H         3.82065532527302    8.69849986240491   10.69635113485791
H         2.53040331022636    7.36665162541828    9.35369753639485
H         1.01693484818809    5.87092372446013    8.07765717972909
H        -0.78031706935864    4.65640877271138    9.31644410521916
H        -0.98698154731738    4.98935983397295   11.75972625060783
H         0.11447028623283    9.57943957233923   12.82877891448176
H        -1.78958256445935   11.15158760989537   12.85450137253994
H        -3.96168972687923   10.40573595505223   13.83865587820324
H        -4.11860262373302    8.11065475158189   14.75633281888302
H        -4.01785180215968    6.10926763514680   15.71293994594989
H        -3.59365395384183    3.84990014248766   16.61210653859736
H        -1.36476575254121    2.82211505410930   16.34878618989815
H         0.70060979013014    2.13458565287554   15.90365685975149
H         3.09942312061852    1.65120247321071   15.52087478690620
H         4.49204377257999    3.36867125882173   14.35739348339587
H         3.43094092436933    5.47679027035781   13.63062430465846

