63
CSD_code = FEZVOX | q = 0 | S = 0 | Stoichiometry = C16H40O2P4Ru | MND = 6
Ru        1.97859853117102    0.57454906390199    4.03939820660196
P         1.95134958797040   -0.71563264651079    5.95356909117981
P         0.06873643918365   -0.36207362326982    3.08110278956594
P         3.57792746763180   -0.63409820133642    2.96143005669661
P         2.20941858475594    2.47110972697916    2.71595050276203
O         0.60972236716178    1.79299162527024    5.09790614153598
O         0.47884148722815    3.34927900402622    6.65724195579542
C         1.14251718909074    2.59169172815494    5.95404994214049
C         2.63960218675617    2.53595607647159    6.04023953389856
C         3.25325682159798    1.66727272108931    5.23491695582984
C         3.30934999998142    3.46031072790857    7.01696692069134
C         3.55375846706467   -0.99907296913155    6.80858308272638
C         0.98542479233787   -0.07637776740896    7.36897602450086
C         1.32778303225139   -2.45659308077081    5.97622507325762
C        -1.34641412821318   -0.30677434967167    4.24184353988205
C        -0.06840234833627   -2.10308830943449    2.48807294761620
C        -0.75379172971939    0.45759844770671    1.65758767191563
C         3.65184490790347   -2.46907905066564    3.12050115467726
C         3.64823697368489   -0.53557745380515    1.12363707785670
C         5.34586419454891   -0.27948578711028    3.32853083005820
C         1.74825058938926    2.58896546936172    0.92452173517345
C         3.90005837390210    3.18680703519320    2.58602517941867
C         1.31291420892471    3.96360211466306    3.27813251749586
H         4.34766973212969    1.61233014671734    5.29134157104254
H         4.38439064696592    3.28258544697410    7.05530362856354
H         2.88409006277767    3.32364443448461    8.01108199059808
H         3.12983248132572    4.49820625780777    6.73452516229126
H         4.24772645374517   -1.51016211975717    6.14368097667287
H         3.39315867031390   -1.60311809487412    7.70172200619288
H         3.97683539046639   -0.03756776144795    7.09148151168126
H        -0.03757072603908    0.12935414792140    7.05854075283357
H         0.99358341496775   -0.81193857905337    8.17488504157003
H         1.42618556409016    0.85615660817381    7.71684790336812
H         1.46357938700954   -2.88491504993233    6.96932311055220
H         0.26871512343538   -2.46994806718561    5.72675167999882
H         1.86485506648075   -3.06052503286288    5.24899122060121
H        -1.42916828640115    0.71735047502117    4.60374017218308
H        -2.26726432923486   -0.61030541219483    3.74240403010507
H        -1.15710716358850   -0.95641290761231    5.09391699822667
H        -1.10056896207205   -2.32379920485957    2.21696635575015
H         0.25499059209410   -2.78982578741928    3.26691741986140
H         0.56830612686280   -2.23542753954494    1.61444895539451
H        -1.70513992336688   -0.03005811912056    1.44196535709490
H        -0.93179391781110    1.49770471094091    1.92605636741055
H        -0.11611739600720    0.41300784306173    0.77690676188721
H         2.70495032611663   -2.89803707409003    2.79954378032171
H         4.45955899509596   -2.86735740768718    2.50625629759245
H         3.82912281629695   -2.73288878771854    4.16146615627647
H         2.66912559002018   -0.79272703162322    0.72047692295434
H         3.89500973086756    0.48404750292235    0.83329319267051
H         4.39953558693559   -1.21837281499883    0.72715237486281
H         5.54685981408241    0.77424088449693    3.15007226969489
H         5.99513786041723   -0.89086560319182    2.70173858017464
H         5.54012059956480   -0.49513914082927    4.37744617176701
H         0.67483957683797    2.74042228200972    0.84132836390811
H         2.25893524045316    3.43977556549457    0.47433895540182
H         2.01802709964693    1.68420581552269    0.38665750182979
H         4.31607601823131    3.30881914532941    3.58340446075408
H         3.84694674522403    4.15829876414755    2.09423274369477
H         4.54138303421084    2.52429342659643    2.00712112063623
H         0.25676080935678    3.72749015319674    3.40319577152321
H         1.43569737402412    4.75666861451708    2.53877903100246
H         1.70277677826670    4.29030880900749    4.24018839981933

