81
CSD_code = FEZVIP | q = 1 | S = 0 | Stoichiometry = C40H36IrO2P2(1+) | MND = 6
Ir        3.93025075585279    2.23929842492702    3.17324825498895
P         6.29573490262280    1.79607000681819    3.14627017852188
P         1.52275225377568    2.46370712054313    3.20386022368189
C         3.98301336780200    2.96117896550507    4.97509227172159
O         3.86841761831140    3.15700904258783    6.09002185944908
C         4.20158630801466    3.74126027000946    1.99956683817878
O         4.46476494403575    4.60329784700951    1.30243488038994
C         3.76724887681386    0.50076885690594    4.43064162857945
C         3.67584552067880    1.06901204706788    1.38468382497684
C         7.01531693372469    0.17086038244975    2.74804012139257
C         8.40401818727720    0.11743522998158    2.62096550436744
C         9.02605458071603   -1.08261422413221    2.33686626348540
C         8.27238652835123   -2.23511735602833    2.17267681861003
C         6.89487200519646   -2.18353216827778    2.29798486246283
C         6.26298120062438   -0.98511946195736    2.58601436025772
C         7.23942952690862    2.85860861759811    2.00034345607874
C         8.30539440269441    3.65864477927585    2.39845610149739
C         8.99943017895893    4.40091069080707    1.45804391338037
C         8.64322200501851    4.34720097108537    0.12125194003662
C         7.59080380322563    3.54009571301440   -0.28182032298992
C         6.89258631524945    2.79851137793926    0.65149270448236
C         6.97239788236890    2.17869102151468    4.78832860506668
C         6.88024289439892    3.49392002553268    5.24469631622200
C         7.34209301526679    3.82662326281361    6.50311810795017
C         7.88339384073752    2.84667028333890    7.32222536110589
C         7.96088275617627    1.53714532513078    6.87956750262361
C         7.50637456115928    1.19839066268480    5.61592491723004
C         0.62775244863709    2.37490384149864    1.61754471316367
C         1.06932399439077    3.22151373351087    0.60300617146581
C         0.40234594126812    3.27356878705190   -0.60515640831827
C        -0.71741418052282    2.48238600102429   -0.81036067977548
C        -1.17228449203813    1.65488437720949    0.20169315166443
C        -0.50862595151030    1.60022786612402    1.41602569367410
C         0.90737310482499    4.08346222237544    3.77029411795234
C        -0.47432999225735    4.25653470681887    3.85199156730941
C        -0.99774503655261    5.47200249797679    4.24677778643439
C        -0.15134598439298    6.52696873107348    4.55420708966734
C         1.22000448479675    6.36389844763839    4.46141940273771
C         1.74956792414151    5.14625676806617    4.06805242610401
C         0.69751852076007    1.27640130111877    4.29724551160866
C         0.58937185845036   -0.05351098169259    3.89060453048456
C         0.01586834923111   -0.98976103475296    4.72974682095169
C        -0.43464811416517   -0.61232440867501    5.98548192574088
C        -0.30115916343190    0.70124633750088    6.40464485663265
C         0.26971459862285    1.64517469026102    5.56913796635980
H         3.10414742924751    0.62445451791549    5.29029495103444
H         4.73101239863582    0.18817185098984    4.84455262082620
H         3.37017521834665   -0.35220152073461    3.87969163477523
H         4.59467977766907    0.58868247082554    1.04586530355702
H         3.29641952299191    1.64059615474503    0.53569768034874
H         2.95593531724843    0.26548751777056    1.54841074812066
H         8.99306442980939    1.01536032894088    2.74851562213374
H        10.10051948669388   -1.11901071551095    2.24196188090152
H         8.76062392515392   -3.17057825449217    1.94735407457936
H         6.30642253181965   -3.07954225354881    2.17159910552642
H         5.19095184442345   -0.95214111249347    2.68492052892951
H         8.60102995061014    3.70227977974799    3.43684970429430
H         9.82464831998224    5.02083312429017    1.77413547845684
H         9.18717351779651    4.92933493421288   -0.60628001627701
H         7.31532626268222    3.48846316966625   -1.32409519209585
H         6.07407535697189    2.16559643322612    0.33810203975366
H         6.45108592192537    4.25359415169222    4.60137576304387
H         7.27852396595891    4.84748320565412    6.84827566809348
H         8.24083578466971    3.10604487548581    8.30659003636775
H         8.37559720918501    0.77351343519125    7.51954241383895
H         7.56891508697436    0.17502417132852    5.27418232915748
H         1.93420055364050    3.84816058344108    0.77270675786999
H         0.75248960809094    3.93146106080727   -1.38593081163251
H        -1.23776771831171    2.51768759047754   -1.75482014607684
H        -2.05247110936298    1.04876265758341    0.04997831188163
H        -0.88533206270446    0.95963420353652    2.19957823515230
H        -1.13207590695891    3.43340230930103    3.60782441634738
H        -2.06732099381891    5.59914512436865    4.31339816336696
H        -0.56201005824031    7.47584536486678    4.86240953285701
H         1.88046273825475    7.18533684341203    4.69418235860738
H         2.82268035038380    5.02642291280787    3.99237083565707
H         0.95719016731618   -0.34648946914439    2.91679173216862
H        -0.07613823191623   -2.01600330258539    4.40776421655022
H        -0.88202660761447   -1.34425207723429    6.63994770659353
H        -0.63894448545016    0.99266024118997    7.38744379156470
H         0.37961702165152    2.66741809394928    5.90335938614531

