68
CSD_code = FEZZIW | q = 1 | S = 0 | Stoichiometry = C34H30N2PRu(1+) | MND = 8
Ru        6.83118804202086   10.85711096920535    3.11724916463035
P         8.28460300475464    9.48762854606612    1.95533718458290
N         7.87369572707645   12.44250022421402    2.50436330160600
C         4.86124370453065   11.85851587245641    3.43028161727769
H         4.63434412003340   12.90579105126222    3.58241478566227
N         8.16516465439979   11.05657727845708    4.58986308344767
C         4.81764311212489   11.17550025052408    2.18060486100027
H         4.52835915038135   11.61526675420416    1.23609782469129
C         4.97293334216179    9.79384799840079    2.44360233348697
H         4.85689496619657    8.98965391935980    1.72594558016915
C         5.09967824343378    9.61661508305371    3.85668628180143
H         5.03330295045571    8.66736517986065    4.37012298063868
C         4.99547103880464   10.89447714542423    4.46703243456494
C         4.86449919649459   11.17228424141127    5.93087018446530
H         3.80452181501293   11.23634439971304    6.18346028941734
H         5.32908208074586   12.11973576290317    6.20155676840520
H         5.30244808798128   10.37810797994186    6.53223645820529
C         7.60795839508644   13.12454040544455    1.38722315702475
H         6.81451898610407   12.73797827628263    0.76275083534531
C         8.30420221980190   14.25473645212885    1.01225999318115
H         8.04470210411159   14.76636058665696    0.10011049250260
C         9.33639134322585   14.71392143360040    1.82430593536875
H         9.89911109701731   15.59369272991267    1.55760066599503
C         9.62432098331048   14.01504669530955    2.97976290679699
H        10.41777662718241   14.33963615040089    3.63189798071770
C         8.87928961724600   12.88143451516897    3.30113527637082
C         9.06436371648000   12.06608015752266    4.49104444127234
C        10.04600806122198   12.26810511195258    5.45938577473654
H        10.75842418394477   13.06767366940273    5.34499134109220
C        10.09879051534627   11.43652101040537    6.55965409998664
H        10.85109523956940   11.57428303876396    7.31892997075225
C         9.15489332634414   10.42052791707881    6.66727633484783
H         9.14962641476039    9.75450231635220    7.51444305981525
C         8.21971732273539   10.26802218045625    5.66598083985602
H         7.48408272948174    9.47659233536384    5.72032036798522
C         8.43999460126429    9.75868511238722    0.16320417161934
C         7.32315233639982   10.20676851545414   -0.53442502473713
H         6.40718177705496   10.39840323125453    0.01004629593703
C         7.38082466349072   10.38801444297557   -1.90441564509897
H         6.51087266709269   10.73490211448389   -2.44160467990195
C         8.55620819775757   10.11883249267012   -2.58661845033708
H         8.60464712542442   10.26085881709520   -3.65518975002986
C         9.66851095063849    9.65888445574770   -1.89870986786141
H        10.58016729348535    9.43754754052799   -2.43275367528081
C         9.61543643718996    9.47438171799045   -0.52903528351715
H        10.48089609730492    9.10643448196779    0.00426676872041
C         9.99255374852221    9.71536639880338    2.55152264308647
C        10.70204687269347   10.83374552917217    2.11370701008976
H        10.28933392270004   11.45553619975220    1.32883894733192
C        11.94035918485879   11.12707456381917    2.65345581541439
H        12.48917881797208   11.98708516136097    2.29985595132550
C        12.47507285007889   10.31888863177695    3.64408751508070
H        13.44067361892954   10.54992506500483    4.06660732454088
C        11.77429658207829    9.20759079111918    4.08300694497818
H        12.19522023932823    8.57038021206212    4.84585830762847
C        10.53583711590548    8.90641991610125    3.54440950934229
H         9.99675145444678    8.03278126148374    3.88212070775695
C         8.00611563734130    7.69255781941448    2.07492923929636
C         8.15693750565188    6.83205731846430    0.99289145959232
H         8.44036266456310    7.21749675392921    0.02474843135385
C         7.93526386950269    5.47546580008349    1.15720517675446
H         8.05080597166253    4.81122303794992    0.31432483227784
C         7.56583363546282    4.96912017189966    2.39219665019838
H         7.39433312111961    3.91067802922646    2.51283412826884
C         7.40898407228303    5.82375324883371    3.47225734364875
H         7.11679436832511    5.43147972091947    4.43498788574633
C         7.62178324111048    7.17937749907725    3.31182855153692
H         7.49002323880476    7.86000630850064    4.14306215752927

