50
CSD_code = FIBFAY | q = 0 | S = 0 | Stoichiometry = C24H18Cl2N2O3Zn | MND = 4
Zn        6.48493935593385    1.91961788688025    3.45528220826510
Cl        4.70823664768417    1.27170576917579    2.34524110686291
Cl        6.61288675677783    3.76393083073098    4.64218667693477
O         9.81876005098108   -0.45346894123112    2.22582658375049
O         5.93412421006245    0.68799704040228    5.29299438435527
H         5.07119569005016    0.29556656602792    5.11371970055382
H         5.81476319778057    1.31512309914129    6.01694151576103
O        12.29325391050725    3.46663628496155    7.97300016503014
N         8.07647834849431    0.77044050664291    2.75039966193573
N        13.96845228027786    2.19035724444987    7.29399009517745
C        11.92019727497197    6.30425508579179   11.06311573239326
H        10.99050966222739    6.83564239773067   11.20257214450282
C        12.99298749199059    6.55005442296270   11.90469504649757
H        12.90154079487992    7.27274736372879   12.70159887055262
C        14.18489263929705    5.86617844728703   11.72130180758659
H        15.02191113123089    6.05682662318328   12.37650627931979
C        14.30886382135911    4.94078464942640   10.70391904247613
H        15.23749800281390    4.40990794718103   10.56405252055449
C        13.23198650328751    4.68782428249464    9.85211988920025
C        12.03487640400216    5.38042301628809   10.04303874394767
H        11.20147082150377    5.18741254587401    9.38472821409502
C        11.84587876739181    2.02575806182510    6.07260345199113
C        10.52670551559342    2.47318137261924    5.96823387586899
H        10.15737822482826    3.21410036774843    6.65965959363910
C         9.69747818228470    1.97714737097228    4.98726751345455
H         8.68306520846086    2.33280424828354    4.91688765949465
C        10.17150819396175    1.02268835603133    4.08373552300723
C        11.49579542759822    0.57377356067788    4.19061975138841
H        11.86279018044843   -0.16375636102093    3.49378418930034
C        12.32204909682859    1.06787738915294    5.17200909698036
H        13.34259274529061    0.73343859149709    5.26684492526202
C         8.22850987008831   -3.10218098308805   -1.50044503978806
H         7.42512064263612   -3.38133384368332   -2.16523128417902
C         9.47353219089898   -3.69843051767172   -1.63052038440919
H         9.63970286433564   -4.44073197882732   -2.39652419306083
C        10.50388353369155   -3.34060114991381   -0.77621087024436
H        11.47427816563273   -3.80356505438525   -0.87543165207107
C        10.29436798094164   -2.39061574119642    0.20447587197287
H        11.09489121288282   -2.10862228119265    0.87131687701314
C         9.04385134311384   -1.78581101295197    0.33952586200063
C         8.00885591901530   -2.15112214713612   -0.52349973136327
H         7.03995522515829   -1.68915718576252   -0.42219167473942
C         7.73887901744491   -0.02277527354150    1.69527393116691
H         6.75573748914613    0.01433804067035    1.27443269964762
C         8.82323979691779   -0.78762689582606    1.36370031369209
C         9.33025555230021    0.48109489930382    3.04340591990294
C        14.38433656865790    2.92197288108281    8.35073154734197
H        15.38210240426063    2.82995177599479    8.72576407196258
C        13.34943022026670    3.72185593764954    8.78304254629368
C        12.72310346381440    2.53778450354871    7.09570921870648

