59
CSD_code = FIBHIH | q = 0 | S = 0 | Stoichiometry = C14H38NiP6 | MND = 4
Ni       -1.73263679310666    4.08098593058864    4.06406177320145
P        -5.25074343870400    4.46477608456083    2.41433657308386
P        -2.61599971893411    2.89652116610293    2.46214919535533
P        -3.41525198544260    5.30845383560873    4.71317903451272
C        -6.07163139932408    5.44134553121621    1.07173950697042
C        -3.81308917430477    3.84890974523659    1.42128880397151
C        -4.43973999943004    5.88587894342268    3.28481758583824
C        -3.67798869653263    1.45687484603540    2.87237092541116
C        -1.62430385311678    2.14919064990999    1.10302798798391
C        -3.23016340208163    6.92506356537549    5.58040685883597
C        -4.75433171643352    4.59431540050115    5.74616569703651
H        -6.49376966953150    4.75551072197588    0.33879500140714
H        -6.88465568589025    6.02515273506660    1.50039013527096
H        -5.36650890111905    6.10984943660429    0.57758367818175
H        -3.28722958086318    4.69305214565854    0.96091320175024
H        -4.21059149221025    3.19431161885575    0.63679316769419
H        -5.23731613076908    6.54168493286188    3.65381500923285
H        -3.80150714460389    6.44050953332598    2.58800348850372
H        -4.14247150395323    1.04198039881851    1.97809049046057
H        -3.06560606911789    0.69778284653336    3.35724995122577
H        -4.45031546468061    1.77774610427956    3.56958837653881
H        -1.08195533668246    2.93691534594554    0.58293354389833
H        -0.89815885429200    1.46402813688627    1.53763341720707
H        -2.25827123884431    1.61244606070937    0.39759092303488
H        -2.59201548457356    7.58150690976565    4.99096150291389
H        -4.19662052927436    7.40173818839333    5.74180078311338
H        -2.74765481584758    6.75261045319504    6.54177151645707
H        -5.60608119837883    5.27135462358848    5.80412565080630
H        -5.06857658077298    3.64831247460770    5.30937667635927
H        -4.36652021383525    4.40376348162196    6.74530091936674
P        -0.84927537907018    2.89651698069512    5.66597133154108
P        -0.04998465047503    5.30840755960595    3.41495647666463
C         0.34775243481418    3.84893467814313    6.70688832560452
C         0.21276384985784    1.45690380712955    5.25574927736760
C        -1.84100375224884    2.14910626127663    7.02502559880616
C         0.97443736299676    5.88588334590570    4.84334983782342
C        -0.23502513262406    6.92498222933781    2.54765074990176
C         1.28915891404638    4.59422730918392    2.38207140902687
P         1.78542825793225    4.46482653973569    5.71389513210872
H        -0.17815170557265    4.69306092567380    7.16724939868661
H         0.74522780308743    3.19433613042201    7.49139508078983
H         0.67724440736494    1.04201098694433    6.15003146955769
H        -0.39959354809273    0.69780043564174    4.77085163225440
H         0.98509487485092    1.77780398028906    4.55854645501452
H        -2.38338722546544    2.93680503022910    7.54513126693393
H        -2.56712137799340    1.46393853585377    6.59037506748122
H        -1.20704896075377    1.61235300402858    7.73046416290458
H         1.77201487248465    6.54169117106916    4.47436780840876
H         0.33616608960741    6.44052357147534    5.54012588454091
H        -0.87319863140558    7.58144132262944    3.13705226381705
H         0.73144379645052    7.40164864016010    2.38628317932057
H        -0.71749032006471    6.75250077336509    1.58627422470943
H         2.14091660475478    5.27126398413059    2.32411377935824
H         1.60338976024655    3.64824014710175    2.81891370069634
H         0.90138786731758    4.40364124684914    1.38292693810136
C         2.60619302147951    5.44138063457722    7.05657598769959
H         3.02828820019377    4.75553798728223    7.78953706443402
H         3.41923907979849    6.02518345443152    6.62797586893265
H         1.90103955913603    6.10987747957928    7.55068925189331

