22
CSD_code = FIBHUT | q = 0 | S = 0 | Stoichiometry = C9H8MnNO3 | MND = 8
Mn        2.84908174656661    2.19893080633534    2.52670217369151
N         3.62367167710528    0.87958762911386    3.82276562041650
O         0.55377810009259    3.49357374009830    1.24659404962275
O         4.31103135734954    1.60460537326517    0.05472554010025
O         4.32005382507787    4.66222550772049    3.13428928355883
C         2.79704522791964    0.17411224442867    3.00450631392407
C         1.43742222410688    0.49916060865052    3.22731339370783
C         1.45200501729156    1.50307500069388    4.23973483282633
C         2.81930923093623    1.70268251860792    4.54760052717630
C         0.23758853115042   -0.21146770323189    2.69376763525068
C         0.27043788227669    2.04716547641242    4.97268196045203
C         1.49176543662177    3.02109125060264    1.71385510487226
C         3.73351469433207    1.87309029477421    1.00847386398939
C         3.73909281623998    3.71204851867403    2.86038685224911
H         3.17770166682063   -0.66380330154868    2.43052886063671
H         3.22030845328970    2.26374630018580    5.38478899367945
H        -0.56168261181737    0.48723459235099    2.45043714114974
H        -0.13922465053936   -0.90307155023935    3.45065928754064
H         0.48941303941957   -0.78029538823109    1.80084393655234
H        -0.53689514015917    2.30421207581572    4.28832396587809
H         0.54231913843054    2.93367507452609    5.54233624371276
H        -0.10443766251168    1.29102093099497    5.66618441901256

