65
CSD_code = FIBJUY | q = 0 | S = 0 | Stoichiometry = C33H23CoN4O2S2 | MND = 6
S         6.75544866816478    2.95431060750637    1.62010391848005
Co        5.10598050493858    4.33578253579838    2.34356788033274
S         5.75105085187754    3.76335552914843    4.52250543366407
O         4.66024152662698    4.81352543855235    0.61334794297186
O         3.68663837873044    5.43673428250181    3.00061785462830
N         3.88152900060941    2.88720080941701    2.39226520590721
N         3.13247778413461    2.49967504338687    1.43371414570445
N         6.34313805639144    5.76648323214143    2.32019839192332
N         6.08117867242525    6.98975180394863    2.53579138943159
C         3.82653797260704    4.22623482598476   -0.14104333780406
C         7.66202223400881    5.47613909388995    2.01324709309864
C         7.98811068281596    4.15766857182457    1.64867580680079
C         4.82672808044016    8.92971713656745    2.97217607191015
C         3.75924099540368    2.14146637302846    3.55668745373416
C         2.02227298000502    3.01446485361433   -1.99636057349146
C         4.88641447643279    7.49800563610034    2.84088870358791
C         2.83559397205892    1.09549119227707    3.68633752527089
H         2.19535154854651    0.87317680447837    2.84848110310435
C         4.57574603370875    2.43106289668164    4.65311776104129
C         3.60855655890790    9.55341238133947    3.32391674309218
C         9.30476743660869    3.84205952504864    1.30831148662560
H         9.53304465411368    2.82610620162539    1.02543830459089
C         2.17505357590100    2.44875755823034   -0.71241820822224
C         4.99569053428798    4.92200382947000    5.71463089418205
H         3.96065937370177    5.10086220796391    5.44292776472868
H         5.56564903038246    5.84467829534273    5.66228232987136
H         5.06769020936554    4.49317053657620    6.70929946104568
C         3.07268173477437    3.06078485951979    0.23810502269835
C         1.44943193573307    1.29307179795734   -0.39724481354630
H         1.57463103368245    0.85634770623314    0.58028219761285
C         3.61732236647695    4.76080351115662   -1.45443050214702
H         4.18556237646616    5.64280284995323   -1.70893669561787
C         2.50620278157587    7.39875681536258    3.40861239840102
H         1.63082139806714    6.78510284418077    3.56485257643820
C         2.76286905476658    4.18467439391689   -2.32997934987370
H         2.63090977244942    4.60802423519115   -3.31596752320912
C         3.71046324377931    6.71602188922877    3.05802868360789
C         2.74914823893065    0.37575314110310    4.85765585655338
H         2.02965321308794   -0.42514373949053    4.93836811810759
C         4.49993539355333    1.69473711110369    5.82223633640628
H         5.16361972324011    1.92841898420784    6.64080531971069
C         0.44844831288827    1.28177124598313   -2.58264816501461
H        -0.21934421483038    0.82375150483071   -3.29700466254636
C         2.45852297955266    8.74760633576440    3.53457846555908
H         1.53016377411390    9.23497414440244    3.79809154966087
C         4.68027282031794   11.71438522849781    3.24034869833395
H         4.63612364172830   12.78875281353827    3.34157857667519
C         3.58085143575148    0.66736229302393    5.93079690065581
H         3.51655665605303    0.09541067879925    6.84327714863072
C         8.67188910316576    6.44720676435779    2.03990562924417
H         8.41064343503076    7.45265790750590    2.32939473970625
C         0.60136539613672    0.72009775034563   -1.31482341536427
H         0.05033861338124   -0.17237996571032   -1.05663045891600
C         1.15099603798425    2.41356857434862   -2.91666813848556
H         1.04306515540593    2.85598230132159   -3.89670692594580
C         9.96446777358828    6.11669512025350    1.70980261875699
H        10.73616020820781    6.87124405555502    1.73633284756690
C         3.56087705761515   10.95128320954947    3.45251915819971
H         2.62269881511109   11.41599650309301    3.72141908337596
C         5.88422227883769   11.09885265593271    2.88802730475191
H         6.76246139708622   11.70463011990258    2.71838581847080
C         5.95490401476803    9.73478167435862    2.75461386950309
H         6.88051967782913    9.25749993966461    2.47548444130703
C        10.28144019494194    4.81021765400776    1.33985327072624
H        11.29798937555625    4.55679788860303    1.07827547380108

