50
CSD_code = FIBKUY | q = 0 | S = 0 | Stoichiometry = C19H24CuF3N2S | MND = 3
Cu        6.80813323404006   10.40477061459259    1.72870637968708
S         6.81485576338131    8.90813476142750    3.31557968735360
N         6.65729136074664   12.35960338220568    1.55480166308262
N         7.10050696733118   10.46492329735963   -0.24048421244501
C         8.03737555725777   10.58723362360891   -5.15972806893580
H         7.98282161682215   10.74119496807694   -6.23474134443918
H         8.14196961564922    9.52214529703461   -4.97448507113458
H         8.92715534861668   11.08862946874090   -4.78456560760190
C         6.92462899708598   14.58789378495820    2.33722262918823
H         6.87804062595712   15.26191795966172    3.17656453803471
C         7.70156527701069    7.63899562415377    2.45791841027458
C         7.10686341671538    9.46033018308341   -1.10741196000117
H         7.19736694566944    8.46813958251489   -0.69041651119240
F         7.96185518461418    6.57660759786617    3.22564176361040
C         6.77972209443430   11.15511739391020   -4.48659321003665
C         7.01701691074316    9.65128416357200   -2.47097456766080
H         7.04472993733752    8.79099273649736   -3.11890588724143
C         7.29303676452576   14.09808034113844    0.04749453903249
H         7.57731100319499   14.37171509544354   -0.95359289540329
F         7.04626075623549    7.14841361364148    1.37228568013269
C         6.98852524476379   11.71917423470318   -0.70662610615968
C         6.97709348535759   12.76903777083553    0.31646622885126
C         6.87265569142726   11.98229310792258   -2.06873689654302
H         6.74824732428088   13.00100726527485   -2.39234797075142
C         7.26703455016998   15.04644564540649    1.06125416057630
C         5.53479277061255   10.41510610777115   -4.99614569908057
H         5.42568495989596   10.56827207677752   -6.06714121421013
H         4.64170734233637   10.79131754466112   -4.50146631954309
H         5.60339438696676    9.34702104299748   -4.81089393048432
C         6.65408763554089   12.63337413373138   -4.86349951613085
H         6.58229031891495   12.72400743205507   -5.94487304734989
H         7.52601653950319   13.19705714394690   -4.53895177275243
H         5.75839169391541   13.07468219794802   -4.43202809552414
C         6.89192565565032   10.94296703557217   -2.98956085479735
F         8.90089268130092    8.03637366008983    1.96399205440323
C         7.59051080043226   16.51099734476425    0.83954920571303
C         6.64037592214090   13.25337994993774    2.53653289837193
H         6.37687190339678   12.87433510248705    3.51383327315640
C         7.93273291347575   16.82307849551938   -0.61936760586534
H         7.09787589364947   16.59116283946999   -1.27710335427757
H         8.81161573529357   16.27055849557248   -0.94387153078537
H         8.15087558238417   17.88384659163952   -0.71886059156484
C         6.37025156025332   17.35152798753699    1.24226687831719
H         5.50351053195335   17.07043082921523    0.64763134931798
H         6.57581785435950   18.40590000292690    1.07402428547746
H         6.12291482675825   17.21765180187743    2.29135949676022
C         8.79549591611206   16.88687262217887    1.71351575250036
H         9.65721624971220   16.27591717790586    1.45305964859746
H         8.58177128810167   16.74351777369042    2.76882821306699
H         9.05411536397317   17.93146309609687    1.55764510640019

