90
CSD_code = FIBPEN | q = 0 | S = 0 | Stoichiometry = C46H40IrNO2 | MND = 8
Ir        4.98931727059703    4.38944768940599    1.91150099471670
O         6.75060649648598    5.67155763228622    2.53505855761551
O         8.31967050196232    8.02574301679769    8.34174260450575
N         5.21078821991206    4.87732096998704    3.85494937637695
C         6.31267797463506    5.63547152308536    3.72652102008595
C         6.85965761548544    6.27523450479787    4.88215743377478
C         7.97956902990017    7.10892727032404    4.80288795418063
H         8.42953032403334    7.26225286726807    3.83385259770265
C         8.48969760947573    7.71483721568629    5.92198177258423
H         9.35081144788490    8.35781193305673    5.83432676110883
C         7.88801946042789    7.48217468145365    7.17014419515898
C         6.78735665276911    6.65025843937271    7.26528937081572
H         6.36319115760155    6.47735132493729    8.24142886068670
C         6.23813922893704    6.03369994675756    6.13388078696210
C         5.13353984129149    5.12624314917579    6.20701243185733
C         4.52269086855605    4.78995440947966    7.50825407564955
C         4.56852704383557    3.48795670794776    7.99352738888094
H         5.08181633275796    2.73232177997394    7.41820854050436
C         3.97827808831035    3.16617012983196    9.20125287629925
H         4.02109765199757    2.15046259011233    9.56683917999190
C         3.33581884040962    4.14323750540785    9.94281933743692
H         2.87368063658188    3.89245962561007   10.88631168020907
C         3.29004938788686    5.44444959067404    9.47134353433918
H         2.79101722782467    6.21080394121349   10.04699824895807
C         3.87934542023499    5.76712202298905    8.26263058103245
H         3.83322772481455    6.78055330848233    7.88938338304808
C         4.67861657438639    4.54239221911363    5.04565023585603
C         3.62951381869825    3.50668778639772    4.98812762915643
C         2.40513638943170    3.71763136604847    5.61472207469790
H         2.22455873725147    4.66126565673808    6.10830277637499
C         1.42638798475168    2.74269211331226    5.61191593667001
H         0.48089485902330    2.92480205214157    6.10095545601780
C         1.67087537138449    1.52947384585170    4.98870306882647
H         0.91701619517349    0.75589267857977    4.99254584587262
C         2.88220651581578    1.31047315886983    4.36277633742018
H         3.07562928058983    0.36069322642143    3.88414701136058
C         3.87401972137282    2.29010149117569    4.32857363385169
C         5.17047756177745    1.94961400002945    3.69516642082045
C         5.73940582775368    0.66078870371598    4.14369685815601
C         5.65867367066203    0.28576161244108    5.48349764843275
H         5.17357859862756    0.94357016354172    6.18981009631738
C         6.19326741089434   -0.91222737939236    5.91746484161235
H         6.12894663065777   -1.18123632112965    6.96219793724319
C         6.80911136572929   -1.76661958889265    5.01852524308666
H         7.22713000122613   -2.70321835468509    5.35727405475222
C         6.87659877727282   -1.41516463214320    3.68068083614437
H         7.34245436611828   -2.08269035622172    2.97004079275377
C         6.34551147992940   -0.21575530261514    3.24607435141419
H         6.38910228640702    0.04324213500729    2.19951149673178
C         5.77544547574122    2.70136626425108    2.75677379936075
C         7.16315479865310    2.48053360681336    2.34187913135246
C         8.17388204733393    2.51156778460907    3.30709825302954
H         7.90505946043482    2.65348789127701    4.34415333234051
C         9.49859203402187    2.37477678276137    2.94360557066324
H        10.26804279064971    2.40600236935841    3.70174843733758
C         9.84467831358631    2.19849537929669    1.61387858183702
H        10.88195657150855    2.09070906986322    1.33196106743658
C         8.85296294524666    2.16474521322993    0.64715304779572
H         9.11831868092037    2.02670829164229   -0.39178310370479
C         7.52756386401536    2.31074642673020    1.00497193750861
H         6.75517719254652    2.27799001075219    0.25244717500452
C         2.08566511647927    6.31982058850682    1.94866450134880
H         2.48766863744086    7.32584828446116    2.04420974455186
H         1.91319052553252    5.92131313452418    2.94702692264879
H         1.12154789030677    6.38233987457274    1.44030089445110
C         3.01192353876564    5.43470936450506    1.18094693523744
C         2.95563676006954    3.98170442720407    1.20954584188358
C         3.86758363189089    3.48555832002930    0.20490110111165
C         4.60635624270325    4.59707558306863   -0.26657304715756
C         4.03501276407827    5.80368463651084    0.31419349896258
C         4.47270914151998    7.17945407255573   -0.06497304162629
H         4.22772913796252    7.37961816035937   -1.10964593003241
H         5.55101779136575    7.28139676091367    0.05198176098311
H         3.98775272289550    7.93197379785743    0.55217033316759
C         1.81312554656274    3.20293571103242    1.77900683321086
H         0.95152711351313    3.28336415003220    1.11276167735713
H         1.52314524867057    3.58244337651017    2.75543297751676
H         2.07096873408626    2.15318032503864    1.88275469426606
C         3.87357826067674    2.07667289928822   -0.30733866929837
H         3.96196243389345    1.36224920440365    0.50905133875837
H         4.69297475831822    1.91115909031173   -1.00175838893248
H         2.93782653014030    1.87871458603063   -0.83241495582453
C         5.59582116532192    4.63008852568434   -1.38981023062988
H         5.90888748593424    3.62894736943538   -1.67435971006321
H         6.48129270107511    5.19687703189416   -1.10649666352931
H         5.15152034741676    5.11218033326177   -2.26265614171520
C         9.44753976288237    8.86628009185030    8.32690387626889
H        10.33775970437788    8.34114916190598    7.96597547468969
H         9.60345578807767    9.16555935269159    9.36232423257058
H         9.27825086409564    9.75907864450035    7.71602278190680

