81
CSD_code = FIBPAJ | q = 0 | S = 0 | Stoichiometry = C40H35N2O3Rh | MND = 8
Rh        2.91281428642824    2.65623094574243   17.45774449183840
O         4.01957315393558   -2.28062160412211   24.58148347581211
O         1.95418423054574   -2.81891528527879   24.34620564018475
O         1.61819467425265    1.21905611754064   18.69128082712081
N         2.95120969069021   -2.21444980146784   24.00779746048368
N         3.69992768395685    1.78073833917377   19.08528722340655
C         2.61209890701522    1.08523947880156   19.46019482343148
C         2.67585683507419    0.25726820999847   20.63229509857990
C         1.54533029656013   -0.43339257601396   21.09190365616354
H         0.62123170469885   -0.31113498112015   20.54827081523512
C         1.62244158215311   -1.23326815733637   22.20005736162675
H         0.76897135654369   -1.77039541786141   22.58179880364606
C         2.85910917454268   -1.36178763087693   22.85163639446518
C         3.98751402016741   -0.70375674253609   22.41733185274065
H         4.92005980222920   -0.85297634074067   22.93986219206607
C         3.92361500332760    0.14269854725043   21.29761149069494
C         5.06417565960353    0.82317563976561   20.77642134570256
C         6.39656559540752    0.65849199159598   21.38809940079662
C         7.45149958473521    0.14709470478596   20.63869100884601
H         7.27742002778995   -0.14692423637322   19.61404638938966
C         8.70627420392059    0.00713741611727   21.20058880859160
H         9.51711661438163   -0.39350552503648   20.61006306855424
C         8.92444135135319    0.37637585761803   22.51743185513575
H         9.90504594288777    0.26664748947161   22.95597056993427
C         7.88075612101589    0.88608684502914   23.27076409777635
H         8.04566696689878    1.17635540820735   24.29796887121665
C         6.62406300428156    1.02680427157544   22.71108539274958
H         5.81480668614974    1.44093955238848   23.29602249778761
C         4.90316535705908    1.61095083971122   19.65483006060445
C         6.01623667222132    2.29834645735784   18.97715943262677
C         6.85840744875090    3.14235330531497   19.69384538867400
H         6.66996815342054    3.30332009875542   20.74514200773120
C         7.92252602541028    3.77019358742227   19.07687641022552
H         8.56922315338536    4.42301417769754   19.64359135857588
C         8.15625007905247    3.54837375760324   17.72980848150625
H         8.98902391803062    4.02954940974152   17.23796108177013
C         7.32505007562909    2.70880406188998   17.01353296978240
H         7.51756795017774    2.54704128354347   15.96276924570990
C         6.23447848339940    2.07645052015257   17.61005998956277
C         5.42680381361224    1.14943357089313   16.77588507958268
C         6.24579150867605    0.04624486759420   16.14096475952323
H         5.59942633583467   -0.74197205775336   15.76512826689085
H         6.92641413480631   -0.37578753456215   16.87961384823084
H         6.84797562972779    0.42096587318555   15.31414863716877
C         4.11291712946723    1.27602366901730   16.57149534409321
C         3.34794356965098    0.51628512907115   15.57829019783788
C         2.17956694162202   -0.17643098104275   15.91267199378725
H         1.85046836034404   -0.20121919158214   16.94165757502774
C         1.44544102284306   -0.83047841170893   14.94178691208769
H         0.54760590367704   -1.36361764975484   15.21939539619367
C         1.85048364393095   -0.80476316512752   13.61691880772893
H         1.26997240095517   -1.31101771290882   12.85969473199179
C         3.00616945690094   -0.12422914625848   13.27020022904870
H         3.33070045690916   -0.10129844517541   12.23926024482299
C         3.74880889939917    0.52564670567438   14.23718464533411
H         4.65023590416795    1.05158631427115   13.95978177875012
C         2.51706785792641    4.88421171862330   17.95134166455095
C         1.36706346641624    4.34385826886799   17.37640713115007
C         1.71873183468905    3.79743747471484   16.06684810476816
C         3.07788329120020    4.09820895041150   15.81463911401712
C         3.62110564336939    4.64729424413980   17.03087555858620
C         4.96799762291713    5.27972448490579   17.17290393394238
H         5.68508075430753    4.83867012466699   16.48665566142418
H         5.35272540196593    5.17235494233072   18.18475642617498
H         4.88635153017765    6.34570406861283   16.95112391600307
C         2.64087110082336    5.65042436280732   19.23040510741315
H         2.67074530915831    6.72060954487553   19.01549147677963
H         3.55848959720513    5.38718997349431   19.75342258490105
H         1.79988235152897    5.45580140959339   19.89137558334898
C        -0.02838933749080    4.35427208831159   17.91079442624894
H        -0.07521065819599    4.84458441506800   18.87966139411653
H        -0.40022877803588    3.33560757644183   18.02122164472571
H        -0.68573211963322    4.88126456577960   17.21818870685589
C         0.71345036276176    3.28735501459378   15.08053138073931
H         0.20863807021256    4.12634463251760   14.59698435272809
H        -0.03752485581157    2.67755544974827   15.57846844477414
H         1.19076626777111    2.68257137291509   14.31243335810742
C         3.80223192496105    3.99143921943320   14.51081866594045
H         3.33792357412334    3.25153531549843   13.86408582468911
H         4.84353833439423    3.71759858419707   14.66315832269791
H         3.77285486360797    4.95850034812989   14.00533742653451

