65
CSD_code = FIBQAL | q = 1 | S = 0 | Stoichiometry = C32H30AgN2(1+) | MND = 2
C         5.20775079437586   -0.26416778752807    0.28831427496608
C         5.04883801054044   -0.89542957699513    1.53638356698699
C         6.12744126876544   -1.17565113717229    2.41879144132984
H         7.12997319167819   -0.87622262386758    2.15686708561450
C         5.92957957450941   -1.81102693189590    3.60722575350456
H         6.76757460721269   -2.01130001018866    4.25743078020935
C         4.63989805937114   -2.21574138084276    4.00614462216264
H         4.51189483309950   -2.72708562021316    4.94728050782202
C         3.57329708732095   -1.95431552105409    3.20427616061036
H         2.57627206428767   -2.24949557921331    3.49485149632401
C         3.73711996295799   -1.28732714535519    1.96262780187074
C         2.63913500510186   -1.01552775990959    1.15452049380619
H         1.65737592598010   -1.32945878777638    1.47828006890233
C         2.77261306033753   -0.34956258018065   -0.05862092712792
C         1.64264979750595   -0.08763641936756   -0.87783422125961
H         0.67730062626027   -0.42772701823881   -0.53214053754893
C         1.76757036638279    0.55320224981830   -2.07212171548646
H         0.90374761947356    0.73836697633594   -2.69189053923610
C         3.04237773600976    0.95132763419658   -2.52436759038681
H         3.13526522665273    1.41191358923392   -3.49730906241262
C         4.16366209049655    0.70687471525403   -1.77687570113830
H         5.13050621757815    0.91344717400637   -2.21953521010849
C         4.07817478064406    0.04672376384879   -0.50381478247883
C         6.57586610097855    0.08325097238570   -0.24407639633426
H         7.35102095004876   -0.53819953162235    0.21503512046458
H         6.61229073748014   -0.11783268731169   -1.31692915211465
C         8.00666871797865    1.96219477820871   -0.81372284493163
H         8.89150927178622    1.34777608457583   -0.61519082868301
H         8.23187785965847    2.99650674451888   -0.56455743795217
H         7.77630456740607    1.90136232130244   -1.87676115477757
Ag        4.62370872900000    2.52985454907332   -0.05248486783090
N         6.84700224011046    1.52025753753413   -0.03690970444314
H         7.08705766662639    1.63749182208178    0.94922574994858
C         4.12344254945916    5.37561255496340   -0.28037685763395
C         4.32748828183956    6.06888054438149   -1.48825523263708
C         3.27746291287356    6.42376726036414   -2.37819522893135
H         2.26131806130982    6.13989974095168   -2.15418454768561
C         3.51961800516760    7.11303836861099   -3.52775445985548
H         2.70252146937911    7.36874160642770   -4.18507451604131
C         4.82843528295812    7.50185459756402   -3.87688889820934
H         4.99181814780273    8.05578728115330   -4.78795258892134
C         5.86863480569662    7.17203547574070   -3.06555429984460
H         6.87948987165850    7.45460988980634   -3.31840726837663
C         5.65830682957335    6.44743926940914   -1.86388189968227
C         6.72936309076852    6.10367565441941   -1.04707046482829
H         7.72635514390879    6.40687407556146   -1.33242801487212
C         6.55009461497294    5.37768527768360    0.12502856063669
C         7.65388578347976    5.03881523296485    0.95181343836809
H         8.63565084516078    5.37133130530693    0.64735867996206
C         7.48514194988538    4.33472759993951    2.10424770879503
H         8.32980255811802    4.09083507206114    2.73013500831257
C         6.18986076332377    3.94914984494610    2.50744513179214
H         6.06251041104551    3.43912395194268    3.45147226878049
C         5.09268787462935    4.26654786088033    1.75139238688376
H         4.11094289030704    4.06595122562836    2.16338726981549
C         5.22486217618231    4.99261459635729    0.51880211426052
C         2.73513289505935    5.02718589829108    0.19459926590024
H         1.98563888039317    5.69387826016480   -0.24321809255774
H         2.67345675644839    5.15955117210106    1.27683355771042
C         1.24252530732146    3.15417299020955    0.59635722171048
H         0.38179864848721    3.80562510431512    0.41037284386487
H         0.99835987840240    2.14489714961578    0.27314769196962
H         1.43867717499050    3.13988674231322    1.66794445423619
N         2.43943534928928    3.61278453520184   -0.11200366197485
H         2.23195604228754    3.56417704699911   -1.11120382130080

