22
CSD_code = FIBTUF | q = 0 | S = 0 | Stoichiometry = C4H8Cl3N3OS2W | MND = 6
W         6.61463440992838    4.98403005044212    3.42037959345652
Cl        6.53179849583205    3.09774914131600    4.87741628979767
Cl        7.10242527193620    6.78019165810637    1.92824425904976
Cl        7.90337211106917    6.03143480871306    4.96942473752859
N         4.91656467110948    5.57976115077799    3.81443785140041
S         3.44158605764331    5.40562936265951    3.26781140874328
N         6.02899805720802    3.91707170557078    1.99418635363287
S         4.65306883171293    3.63693835482022    1.31337170979178
N         3.46945692644836    4.41258798618417    2.02602987292356
O         8.61371001384050    4.21883599572989    2.78895218755259
C         9.04089740073060    4.07994913095593    1.41961069616168
C        10.50946234810859    3.67148042039498    1.47733456441584
C        10.56449224480187    2.88708141249325    2.78615003548625
C         9.63041414556120    3.70414003015996    3.67109831287851
H         8.42174266980873    3.30253513329295    0.95152515077187
H         8.87226072401721    5.03628922331728    0.91112140699667
H        10.80196298349346    3.08096904461631    0.61330814712036
H        11.14735790120121    4.55350915065085    1.53674476609697
H        11.56608715944401    2.81974588503128    3.20233532897618
H        10.16841866362271    1.88138188717839    2.64432074211396
H         9.13920120576181    3.11305228269426    4.45366404564917
H        10.15448770671719    4.55643618489701    4.12673253945574

