39
CSD_code = FIBXIX | q = 1 | S = 0 | Stoichiometry = C12H16ClN6O3Pt(1+) | MND = 6
Pt        7.88229536376849    0.83456002652823    0.05475476473731
Cl        7.82892278621844   -0.91613072207856   -1.64669077173051
N         8.74806712888027   -0.71218781569900    1.49374329878722
N         5.95278021783124    0.39025717562037    0.63613771838479
N         9.77081709736792    1.29705390647332   -0.92879278661932
N         7.30272648425673    2.31851768386170   -1.36409246762182
N         6.39289791382570    3.10067917298947   -1.12540335297523
N         8.11574901989102    2.25960396568202    1.39224689261072
O         7.82891296666040    2.00105939169933    2.52897177149390
O         8.67025132474633    3.24419863102216    0.97881613402272
O         5.67506863668844    3.02519932692349   -0.14880929042103
C         9.63964927861262    2.47885565573076   -1.80351707798743
C         8.24640234251117    2.44833456445738   -2.43915319739703
C         8.24133489072405   -1.94293190510198    1.49002361977946
C         8.74975018162320   -2.95858468921702    2.28098210346805
C         9.82640968666561   -2.68598648042956    3.11025714797685
C        10.35140725974842   -1.40244055077814    3.11342498073784
C         9.78341076602488   -0.44707416124569    2.28963344957124
C         5.57890089337216    0.26288759668796    1.90758961658103
C         4.28871858446019   -0.09479256542463    2.25933042315535
C         3.35720946798467   -0.32928700149590    1.26069517041720
C         3.76056227582361   -0.20511180780654   -0.06015371674975
C         5.06655476997049    0.15621101627825   -0.33474216120604
H         9.83210539610571    0.45164361796008   -1.51198603551788
H        10.62392466667096    1.36940237079662   -0.37403506128566
H        10.40968036703705    2.48291634494206   -2.58038956131752
H         9.74147918081555    3.37958943472923   -1.19181327693767
H         8.15003750423256    1.57263417650245   -3.09134045533811
H         8.04873199597103    3.35699068550816   -3.01184307631993
H         7.41228980751603   -2.12602707019771    0.81994688343598
H         8.30889388072579   -3.94129587780383    2.24148687579973
H        10.24809204749742   -3.45488386760013    3.73863381555123
H        11.18759738984844   -1.14158711266483    3.74148524628451
H        10.17212871338511    0.56306438211597    2.28323332634481
H         6.31431308948766    0.47635130679074    2.67315775365359
H         4.02637673532026   -0.17666158057295    3.30152684035945
H         2.34148291014310   -0.59869318851498    1.50451623769192
H         3.07463202117872   -0.37664586194139   -0.87374393598647
H         5.40443495640684    0.25061182527749   -1.35918784543251

