37
CSD_code = FIBXOE | q = 0 | S = 0 | Stoichiometry = C17H16AuN3 | MND = 2
Au        4.67885639237447   10.37044679381465    0.71631434196249
N         4.54219327461393   12.58774631769416   -1.30135241449517
N         6.40828561919659   12.62869323424757   -0.24665074455332
N         4.10838212139167    8.78621184107559    1.76807138335735
C         3.22702396813627   12.22422531963629   -1.74639527421104
H         2.90834733945896   11.33756991447679   -1.20104252284642
H         2.52303160642418   13.03584002683852   -1.55556718129851
H         3.23468957406714   12.00705389403243   -2.81536660765857
C         5.24475606120855   11.95753040075985   -0.34089334560005
C         7.48020258337085   12.31591577802858    0.65501132931861
H         8.39230103860061   12.09449826532573    0.09834187223950
H         7.19663973443126   11.44407126953838    1.24272058635739
H         7.66990605598185   13.15590826050880    1.32534604069683
C         5.25657533483683   13.64112594755236   -1.80314138915706
H         4.87837904846739   14.27548708704470   -2.57772473719584
C         6.43496348856526   13.66687867217073   -1.13732086038988
C         2.91066650164782    8.13236164181709    1.67507377415452
C         2.84344255908535    7.04204641810031    2.58422496547774
C         1.70551836586909    6.24972007500358    2.64436407140359
H         1.65236750342026    5.42009013070547    3.33548578076883
C         0.64718413094798    6.54105498645886    1.80781351146140
C         0.71461987706839    7.61143580437976    0.91620916125091
H        -0.13082895851961    7.81563810202869    0.27277263610190
C         1.83482333326554    8.41223889446166    0.83911302385756
C         4.82813802860514    8.13387610901506    2.73089936408611
C         6.10955747532855    8.41518307376346    3.19293046363599
C         6.64363078400694    7.61574723381203    4.18179139842355
H         7.63913522247067    7.82089650332686    4.55242466571812
C         5.92698057161114    6.54539600116919    4.71662187680669
C         4.65464422527544    6.25236036511610    4.26937450861110
H         4.09979367366337    5.42242744357239    4.68421275997983
C         4.09680040642009    7.04319809032734    3.27459592745754
H         1.88061775408476    9.24234902933322    0.14461038983828
H        -0.24817181808884    5.93601075560114    1.83921711641087
H         6.67165098850667    9.24488070823924    2.78174237781165
H         6.37943989899406    5.94152780388936    5.49080676120076
H         7.27245623522860   14.32735780713528   -1.22533501098002

