17
CSD_code = FIBXIY | q = 0 | S = 0 | Stoichiometry = C5H8AuClN2 | MND = 2
Au        3.34480946873533    0.94309715005338    5.62712563144944
Cl        1.64789160446546    0.91436721820109    7.09460670810120
N         4.77582187976448    0.88419586388805    2.97373566417505
N         6.17478707161752    1.05722630945490    4.58873711013387
C         4.86158182328707    0.96317677995858    4.31369843175191
C         6.02284267641165    0.92798103352515    2.41288610196092
C         6.90650070831327    1.03750113432126    3.43297765704796
C         3.55842417000241    0.76813000579993    2.22243721363131
C         6.74514330488142    1.16759464558822    5.90124017064974
H         6.17958460398568    0.87859305846389    1.35529302570132
H         5.93982101214332    1.13659228536196    6.63435197674553
H         7.43321180540764    0.34117000374033    6.08588656724884
H         7.97482463979302    1.10166108885027    3.42771707834315
H         7.28713809737362    2.10950263610294    6.00148008393232
H         3.46197142839392    1.60265907571828    1.52625825566474
H         2.71897978649973    0.77855636094579    2.91631478530759
H         3.54776591892459   -0.16630464997416    1.65895353815491

