95
CSD_code = FIBYEU | q = 0 | S = 0 | Stoichiometry = C50H35N4O4OsP | MND = 6
Os       -0.28667869053893    2.15297590866391    4.01232258131067
P         0.45902621725178    3.89212039194721    5.44616668436965
O         0.59770139611898    3.07286974543135    2.40414327875248
O        -3.53837095715913    4.08360138065550    2.32284983947783
O        -2.44395354801594   -0.81434451794136    5.38655030080806
O        -0.18444587513688   -2.14643792911594    3.77701823402860
N        -1.99063516470445    3.22070655489966    3.75055637047541
N        -1.43910919570112    1.24561953049148    5.33377353282438
N        -0.81732396517740    0.73197346129817    2.65393556070619
N         1.44327466628067    1.05553680834924    4.00947818348129
C         0.07561832292733    4.05405025798369    1.71965579652278
C         0.94362399430980    4.75684328349003    0.85623390217281
C         0.49989813428833    5.76553924820119    0.03484842123024
C        -0.84286710900303    6.11844924567436    0.03078485542664
C        -1.71022764627314    5.45137559221204    0.86826048970954
C        -1.28833540457188    4.44011349836192    1.73378144260558
C        -2.36154793797122    3.89707181707668    2.60818720614019
C        -2.88241576357791    3.03936266645334    4.77058916052689
C        -4.01614607421367    3.81608188823526    5.03610377839408
C        -4.85427802266663    3.47514694259401    6.07237797562247
C        -4.60047820610829    2.35402099399060    6.86464181951926
C        -3.48900950094852    1.57671338381029    6.63663926696959
C        -2.59924577895346    1.91737875173217    5.61081931209147
C        -1.42454852102810   -0.15729310676705    5.45523148672534
C        -0.07768356278152   -0.71426262377991    5.65978461423680
C         0.39672371323816   -1.80282426103087    4.82259934339909
C         1.65626055087016   -2.37974735717603    5.22122793764795
C         2.38704625838179   -1.88566018189512    6.26048526234140
C         1.93467373780937   -0.78107516125151    6.99222376857330
C         0.70437935968484   -0.22716997704459    6.69486040792897
C        -1.99261994389081    0.48966809543746    2.10346701888895
C        -2.16157107707293   -0.43414956789066    1.07386886909551
C        -1.07181003706686   -1.12354334938830    0.59219311597410
H         1.98313955644181    4.46143910641978    0.85767429159683
H         1.19972856183042    6.27681673503477   -0.61106385297118
H        -1.20272429460094    6.90348774577017   -0.61645102912438
H        -2.76029833196317    5.70509969199430    0.88284512977870
H        -4.22372753443426    4.67558183183442    4.42001872869690
H        -5.72293253700488    4.08370248759414    6.27430401146537
H        -5.27470834317702    2.10258899626034    7.66924906332880
H        -3.27418514320236    0.71686680973570    7.25247042838588
H         1.99654146121575   -3.23428332163380    4.65408066874753
H         3.33088126576862   -2.34454540798975    6.52441887261969
H         2.52179802731186   -0.39162931653015    7.81085750178282
H         0.32613113946385    0.58685025632871    7.29729276132105
H        -2.84286059212892    1.04179358836795    2.48428521344752
H        -3.14796208901615   -0.59513026832176    0.66949960814779
H        -1.17356704202300   -1.83981788761454   -0.20920031468417
H         1.30363599300967   -2.31062428527557   -0.00846514148428
H         3.41867237725392   -1.96575529603050    1.20033934769435
H         4.66889241499950   -0.90081050395165    3.10685950904407
H         4.58974997555906    0.63545183270507    5.06912584953788
H         2.49890118450170    1.83218419573721    5.59245496992749
H        -1.47594863282985    4.89279453938138    7.58022155454764
H        -3.14676491430772    6.67485571201709    7.50331551822153
H        -3.39555625003469    8.06974310839008    5.48427685092719
C         0.18214937167669   -0.90772612897994    1.17831309745224
C         1.36530908190777   -1.60410655268354    0.80576506518362
C         2.53015960027595   -1.41533714876210    1.47299813512528
C         2.61405519244078   -0.52205580393973    2.57822360490178
C         3.77063177191553   -0.35674037715054    3.35624564806374
C         3.72633711283406    0.49183253980664    4.43915839381019
C         2.54789227565158    1.17028482306364    4.73625485094562
C         1.47044291278339    0.21563464172827    2.94455974307640
C         0.25214102287795    0.02659396801892    2.23257640034040
C        -0.74613021164197    5.26353996201117    5.59223657577715
C        -1.56880336691001    5.49198799907797    6.68759004267545
C        -2.51109875727676    6.50627978408298    6.64670462789118
C        -2.64768572521820    7.29173577195630    5.51588801171533
C        -1.81914071113068    7.07871030764324    4.42512967036474
C        -0.87182875942652    6.07541468926980    4.46504644738243
C         1.93070739053487    4.87061152384358    4.97343130549751
C         2.17380500784269    6.08246621278332    5.61986762532075
C         3.27507283941271    6.84332673255190    5.27883582465703
C         4.14340720723161    6.40607723606956    4.28996015420052
C         3.90673616531287    5.20428938087407    3.64588912284747
C         2.80584304208244    4.43552420860636    3.98617982383206
C         0.83728543514101    3.45784579645689    7.18151364080824
C         2.10679616538541    3.61515382326637    7.72905247000865
C         2.35414586494539    3.24136306971174    9.03870939592863
C         1.34137904700865    2.70618419171171    9.81617438208066
C         0.07932756807148    2.52747198204012    9.27317383158628
C        -0.16883994923990    2.88650150571906    7.96029554997086
H        -1.91409303121372    7.68873193120381    3.53941804081339
H        -0.22215705395357    5.91195105746267    3.61599984757335
H         1.49435024656336    6.42320933582694    6.38929670220969
H         3.45624446084304    7.78146760266463    5.78217376285440
H         5.00014945981573    7.00572047876517    4.02095925583844
H         4.57932425514092    4.86403666233822    2.87229663521828
H         2.60886507734075    3.50877748864458    3.46656063044242
H         2.90637352297709    4.03376890329423    7.13428349096282
H         3.34380407982076    3.36909396114290    9.45215795377328
H         1.53662529254500    2.41934372975150   10.83844068287725
H        -0.71030893545148    2.09366193335163    9.86877123979550
H        -1.14353459018514    2.71080101286427    7.52729895724183

