135
CSD_code = FIBZIA | q = 0 | S = 0 | Stoichiometry = C66H62N4P2Zr | MND = 6
Zr        3.21846186848101    6.12126153612193    4.53564309186381
P         1.25755340446442    4.36898831405096    5.89704171945630
P         5.31138590153647    4.47337187643885    3.20065172500972
N         2.13226261396782    5.61979941003851    6.43109548043741
N         1.50936609913314    4.57804718466371    4.31378116181113
N         4.32405885943869    5.61097728286448    2.61778535188448
N         4.88577840040716    4.53564055271042    4.75587785479701
C        -0.47057922425371    4.49928333906810    6.50382333746209
C        -0.87325800968741    5.70917489058883    7.05486724439201
H        -0.17730776765487    6.53290086343619    7.09316532769574
C        -2.15168866125384    5.85367380587335    7.56328386651480
H        -2.44616403705450    6.79291214197413    8.00601060064890
C        -3.04714149587687    4.80011059476489    7.50362981254795
H        -4.04699773777001    4.91333877205057    7.89607294734495
C        -2.65593314656562    3.59518890112561    6.94266698403491
H        -3.35078918856902    2.76930923412599    6.89364765242939
C        -1.37182435872807    3.44100589246826    6.45407379170082
H        -1.07198891068544    2.48674141414715    6.04666779357845
C         1.77969039448553    2.69670665823150    6.48712831687011
C         1.28042287487840    2.11729829208332    7.64914624619174
H         0.53065447735105    2.63677160411588    8.23082646235835
C         1.73992939917682    0.87852965558523    8.05764867423020
H         1.35321633349334    0.43672869461855    8.96471378442365
C         2.68697241155469    0.20203717975390    7.30496505965129
H         3.03890787214186   -0.76721751326790    7.62559302309588
C         3.17490376093377    0.76691954694263    6.13938224306919
H         3.90240169245277    0.24011827024891    5.54041929605915
C         2.72764311896556    2.01276074542985    5.73874552067934
H         3.10166166120494    2.46000170744338    4.82803813524359
C         2.18229489771954    6.04546207727849    7.76040085664197
C         2.15354907352458    7.42163595758502    8.01974715278394
H         2.04390462116126    8.09903645578623    7.18272713433986
C         2.22745123788747    7.89801001179415    9.31145971642877
H         2.19896079279478    8.96421699001364    9.48736561391274
C         2.32784802434832    7.03168935733995   10.39623808973465
C         2.35017014666544    5.66902514568853   10.13980579129195
H         2.42611462535152    4.97153476867097   10.96284991513926
C         2.27994423477299    5.17956621174143    8.84838700327084
H         2.32381419901590    4.11526859039577    8.67099561551833
C         2.41208508878131    7.56978838082512   11.79323391551550
H         1.57827859000643    8.24076703909562   11.99546860626895
H         3.33371485950383    8.13609931808092   11.92688135175610
H         2.39457778266432    6.76353791648305   12.52233904313358
C         0.96362000607094    3.86553159399964    3.26504286942047
C         0.28525278957170    2.65210564362921    3.39512992189577
H         0.15914596019972    2.22901701417656    4.38185487578227
C        -0.18691438190135    1.97729373667894    2.28581059864946
H        -0.70485870636218    1.03763217015996    2.42382015425290
C        -0.00088387364798    2.47608590297195    1.00439519242141
C         0.67652106809064    3.68439916321093    0.86712510538374
H         0.84272620335538    4.09254307301536   -0.12009820706954
C         1.14586995608709    4.37056503049409    1.96626406111180
H         1.68948042069658    5.30111618314396    1.83887943215805
C        -0.50551434000068    1.74513032434764   -0.20382371272767
H        -0.91460852868971    0.77556516525090    0.07036500657040
H         0.29867642046108    1.59444368533830   -0.92326753134769
H        -1.28828730756977    2.32129963456938   -0.69720834363405
C         7.07798831123393    4.83979704688062    2.86198951460885
C         7.42543124327854    5.53528523596266    1.71043576530272
H         6.65050414266672    5.90754825109074    1.05702637947595
C         8.75680161255047    5.74976861140609    1.40243246907432
H         9.01858471521161    6.29215847660067    0.50580206423266
C         9.75021697008669    5.26653887454277    2.23720616615280
H        10.78986645168946    5.42557091889847    1.99067012786877
C         9.40876410990981    4.58586721313963    3.39402590240941
H        10.18141248000965    4.21677097023890    4.05311950367305
C         8.07845391103871    4.37716034007236    3.71016044015356
H         7.81277707046507    3.85852817358867    4.61956038951015
C         5.13336863147577    2.79699433040905    2.43620771927168
C         6.20079333409066    2.03534152344246    1.97691501185034
H         7.20627080750075    2.42945324578327    2.02394250904607
C         5.97274794045598    0.77182794643018    1.45904797974669
H         6.80549504340644    0.18315040259809    1.10234578046271
C         4.68607031019678    0.26093528206237    1.39614598336892
H         4.51728601923754   -0.72670136622639    0.99310337578376
C         3.61707226432082    1.02217309695753    1.84125329844251
H         2.60779488886935    0.64222810738765    1.78453708168205
C         3.84434796025672    2.28484878270132    2.35582026176908
H         3.01661900324797    2.90557987340017    2.67002501337813
C         4.22028720119626    5.96861196170187    1.27010756021756
C         4.11251603773569    7.32427160850760    0.94286923834447
H         4.19060371973946    8.05105558881858    1.73842093370909
C         3.94719803429868    7.72970630621988   -0.36713496917068
H         3.86879518930822    8.78521139547821   -0.58727507129677
C         3.89006466747751    6.80830603994054   -1.40454810785732
C         4.01495896937846    5.46169079143040   -1.08410209684683
H         3.98425566113725    4.72276608821446   -1.87303918440368
C         4.17635031481355    5.04455348394420    0.22180243959705
H         4.26702276882742    3.99004825093740    0.43761870305472
C         3.71071418421985    7.23929877959244   -2.82944231448230
H         4.55903455660327    6.92028428683419   -3.43456090455877
H         3.62292970838335    8.32051393404123   -2.89926657493716
H         2.81329724019949    6.79030629693276   -3.25400216088014
C         5.30088448819523    3.72089667135023    5.79189518178818
C         5.94328239828344    2.49036291920360    5.63609627791315
H         6.17772610868151    2.13761578722990    4.64040144501808
C         6.25166176551383    1.70656676334986    6.73142348817294
H         6.74303575311993    0.75569173959475    6.57438562111442
C         5.93649858714198    2.11030481707118    8.02033105269525
C         5.32241306409680    3.34827985611791    8.18234079935251
H         5.08080375427577    3.69592922260945    9.17736387471623
C         5.01708967377366    4.14284770014965    7.09855226992259
H         4.54825122845273    5.11038263539434    7.24130733611207
C         6.23372958279456    1.24588762957093    9.20885797173281
H         6.81566261358178    1.79453146957395    9.94835518477326
H         6.79107157941112    0.35956426676663    8.91549513819705
H         5.30548797804688    0.92835903065174    9.68458221799353
C         2.04603785902452    7.73990421961009    3.47024381093393
H         2.60760237213354    8.68268373835335    3.41417426450872
H         1.82078791435804    7.39119455175431    2.45255647618037
C         0.80664060980472    7.94035821511592    4.22143496807212
C         0.69010092838975    8.96291986094745    5.17773025049333
H         1.54442765312108    9.60383596432638    5.36853247550167
C        -0.50103136082398    9.20664177233687    5.83253745207592
H        -0.56231798837883   10.01008270629404    6.55393191937452
C        -1.62468442940004    8.44671804256859    5.55019129390399
H        -2.56360329494282    8.65485997878737    6.04100883605863
C        -1.53306604361322    7.42552767772582    4.61572028510969
H        -2.40660844782161    6.83120087556080    4.38428961312868
C        -0.34319945694978    7.17316920532004    3.96456062938514
H        -0.30477744890616    6.39708063516754    3.20913710347201
C         4.37944776075372    7.70155296424569    5.65872599907545
H         3.86126987722495    8.66917322606936    5.61982398317945
H         4.52345012673773    7.40273614134694    6.70645609450391
C         5.66289021031745    7.77849626426465    4.96342482064873
C         5.83739900274413    8.61256771107337    3.84560850312574
H         4.99857283309165    9.20958858863729    3.50325378850805
C         7.06109236495288    8.73393564103387    3.22015938039168
H         7.16427337789720    9.38302790760545    2.36145777097961
C         8.16809661099600    8.05711427983798    3.70791497532207
H         9.13351101753075    8.17732873956048    3.23977440827206
C         8.02468670279613    7.24008973067825    4.81814922210175
H         8.88861214418305    6.73188372137837    5.22325726800281
C         6.79455043890158    7.08549177333492    5.42449847683022
H         6.70631214945480    6.45491781901306    6.30205610949754

