97
CSD_code = FICBAX | q = 1 | S = 0 | Stoichiometry = C49H42Cl2NP2Ru(1+) | MND = 8
Ru       19.59903079910604   20.07405510758213   36.11648948574320
Cl       17.90606065191018   21.77227125625325   36.08328974057913
Cl       18.03233054671719   18.30672573867673   36.16114945997332
P        19.54040603414019   20.38330809794757   38.41037376642685
P        19.04777361843521   22.56978853316105   33.91233855899235
N        22.58270885587232   19.84677759203363   35.84216701849812
C        20.91941623014422   22.33581419540461   31.77095320278629
H        21.14725376332271   21.34492208020693   32.13589210136200
C        24.92106842262978   20.17333875870328   36.08981564438572
H        25.90432607740721   19.74012031477003   36.16262405571157
C        15.86608387295161   20.26610856726235   32.72091749295652
H        15.46187002910348   19.28740000808653   32.92839028460630
C        24.72921318763132   21.54993504702485   36.17482447623294
H        25.56481177510431   22.21301860802964   36.33103454421745
C        22.37105544350901   21.18513737496673   35.84320681546281
C        20.21747781431477   21.31082743677122   34.55451429591926
C        17.53743175583547   21.93889297201917   33.12402345507138
C        20.18930868200617   20.02329349909849   33.94964190394759
H        19.61116622420495   19.88271210512223   33.03940442906956
C        20.00157431479152   23.14408026731736   32.43471618644384
C        23.45090981945004   22.04877794636659   36.03925582673270
H        23.25923899244717   23.10884005021302   36.08454520722763
C        21.42802500489707   18.94344263820313   35.84857233433652
C        18.93999300861619   24.15171371024734   34.79410323947827
C        21.75381764681951   17.65534778736251   36.54187844676730
H        22.21270544636204   17.82017180705819   37.51338629194011
C        23.82814072464420   19.35438123163163   35.92680620070954
H        23.93415639513423   18.28320684308031   35.87086858663034
C        21.02208440892148   21.67375722001052   35.68517185538801
H        20.89274001505876   22.70273749824240   36.02185030882350
C        17.00692894682105   20.67770582406190   33.38493290484450
H        17.44807171260979   20.01468639429630   34.11763857091200
C        19.75808897984034   24.42305623342429   31.93370829216950
H        19.07230253755472   25.08356773449697   32.44718570968497
C        15.24148102377993   21.10411856092761   31.81164430871973
H        14.34742766740702   20.77903130813625   31.30254356936974
C        20.66102719189359   18.88774648171275   34.63125508331667
H        20.36210131131095   17.91970076039820   34.23698962815071
C        17.65669516649146   25.86917826761126   35.85958769728047
H        16.70328315204398   26.26444237991006   36.17420841122222
C        15.76240418409172   22.36324366594548   31.56088663631807
H        15.27547034225271   23.02383600514545   30.85991504775406
C        17.71071595907471   24.65298341736749   35.20470120974336
H        16.80979270414786   24.08666847298261   35.01618207437021
C        20.04486172015363   26.08086493917705   35.69219165220521
H        20.95050575377174   26.63823012243834   35.87820124033043
C        20.19891561069252   19.09778993796095   39.51267168274043
C        22.22300571808876   16.43884251501126   35.77327227879441
H        22.26777207077034   16.50389757359928   34.69547425349468
H        23.00568949014610   15.83090947082679   36.20221409897562
C        21.30720358630373   24.05482342361245   30.14052100642155
H        21.80997911960257   24.40448790903855   29.25241259168403
C        18.82194906142128   26.57535350900789   36.11635615589642
H        18.77561831797822   27.51859167359097   36.63868786730310
C        17.96153853188961   20.67860830809305   39.26637043127613
C        20.94397966697311   19.35863455996715   40.65768291248656
H        21.24416705276607   20.36738892025254   40.90174764742765
C        19.77740245278970   17.79890949942176   39.23804777403335
H        19.17009943348650   17.61952612125618   38.35994948126189
C        16.91217746506152   22.77976801877456   32.20586738449827
H        17.31813322242719   23.75915228874074   32.00076346145678
C        20.40218691389124   24.87280447456121   30.79676012841938
H        20.19801486442564   25.86506344678374   30.42437891793083
C        21.87872078355764   21.84688967782594   38.88172353111447
H        22.38469951091376   20.88992345057517   38.88320685838357
C        17.98383672258421   21.27192546408959   40.52773547423920
H        18.92148430725654   21.60353199809874   40.95257024784788
C        16.76038612911771   20.23168645053608   38.72936818457596
H        16.74689397078530   19.75066210297701   37.76160710303020
C        20.88293813250916   16.43758724499572   36.43184095928625
H        20.76281322375021   15.84418961575027   37.32385003766171
H        19.98940122505946   16.48151502575593   35.82982374120101
C        20.10731422447536   24.87655693870524   35.01513435715200
H        21.05430231448144   24.50973094211539   34.63948139268787
C        20.49465659918058   21.89425192742627   38.73815410781502
C        20.12664347862603   16.76444294493754   40.08599025835688
H        19.79255163903505   15.75917792015235   39.87705824714822
C        16.80568838990862   21.44009877553602   41.22861313668707
H        16.82331223313407   21.90485848942501   42.20308190721348
C        15.58495212438985   20.40301495624277   39.44033964683142
H        14.65220435567563   20.05904393226012   39.02003627460562
C        19.85155891658784   23.12922202747031   38.69414308113822
H        18.77968176004664   23.16695332946176   38.55736132576539
C        21.56767651399269   22.78908126277437   30.63491554665810
H        22.27748059099644   22.14735783900852   30.13489006766451
C        22.60176587431425   23.01712688931695   39.02925396163643
H        23.67245789544305   22.97346862556154   39.16669781701095
C        20.58121236836297   24.29672153495359   38.82383602945145
H        20.07605399719494   25.25033629717689   38.79007265754841
C        15.60504640003134   21.00851668485776   40.68503375950564
H        14.68694231753617   21.14102795418109   41.23715724435412
C        21.29705938596464   18.31527686128572   41.49562531819931
H        21.88044383018103   18.51718604793341   42.38160811747921
C        20.89469255514741   17.02049372677627   41.21093392554154
H        21.17046746568778   16.21391858000758   41.87313470151818
C        21.95474234768055   24.24251290811264   39.00132935763182
H        22.52154792128093   25.15389506232038   39.11773629635502

