72
CSD_code = FICBAV | q = 0 | S = 0 | Stoichiometry = C33H35N2PTi | MND = 9
Ti        0.26302734185845    8.08934792889981    3.46505266872688
P         2.46507154358783    9.84202232259360    3.34067224566863
N         2.25853282947048    8.23840474613289    3.30401838011249
N         0.94108139910396   10.29924423097785    3.18523969994107
C         0.04128155092458    7.41895647391439    1.15120564833126
H         0.83608332075819    7.26208349325613    0.43105913908048
C        -0.69961604276079    8.60227303260394    1.32660591265716
H        -0.56049817994235    9.52585821834623    0.77812993495325
C        -1.74393124590888    8.33336113741746    2.23391620022588
H        -2.56438188189375    8.99561775925983    2.48267533486098
C        -1.64773999267365    6.98080014050702    2.61892999639975
H        -2.37144014968593    6.43868479465794    3.21672713331619
C        -0.54294260094357    6.41507914774394    1.94374260398370
H        -0.27150064671656    5.36650647663514    1.94166880248161
C         3.33968979908109   10.32400153471942    4.87528428103199
C         2.59003448763118   10.84708350876978    5.92171266835014
H         1.53653582942546   11.04355863974276    5.76466868915708
C         3.19647739846057   11.12076218395428    7.13464368829660
H         2.61798402019181   11.53680640026429    7.94646826675537
C         4.54660834676441   10.85860487571303    7.30758520814792
H         5.01998047755625   11.07164811843261    8.25480408103190
C         5.29082613124775   10.31793201788083    6.27074403872136
H         6.34019713626380   10.10354638603702    6.41210132302114
C         4.69068988899395   10.04624747005557    5.05423140927860
H         5.26112969809836    9.61023221591701    4.24483509614919
C         3.53524254953694   10.37460551852109    1.95308150443295
C         4.59177557845416   11.27155153894058    2.02474363188234
H         4.88222304947234   11.69839139056523    2.97485339134558
C         5.27103511804533   11.62255039653973    0.87067408674551
H         6.09538259462629   12.31876713143266    0.92565677519294
C         4.89549709160853   11.09081208566621   -0.35186283831192
H         5.43119229788572   11.36906099686836   -1.24745949891125
C         3.82767108623066   10.20981019088424   -0.42877025998316
H         3.52801531736835    9.80418697546148   -1.38429001145717
C         3.14866514896014    9.85792302872572    0.72167603169647
H         2.30109978491307    9.18218436340272    0.69454217783782
C         3.33283563786463    7.35620410314478    3.49941196337674
C         3.84498794217573    7.10118156763286    4.77222006329881
H         3.40230099967641    7.60193492486010    5.62467134639222
C         4.89386812239127    6.21891324792635    4.94312297313526
H         5.27731414578722    6.03705272693997    5.93745747310976
C         5.46402156455509    5.56247627426736    3.85897518361004
C         4.94940623743830    5.81319292454686    2.59281399792643
H         5.37767726655426    5.31223573936219    1.73566115239429
C         3.90235188548789    6.69575642507319    2.41107561150617
H         3.51433585998735    6.88590675687933    1.41897541147032
C         6.58645621421396    4.58766098674501    4.05194493119990
H         7.16751800740774    4.83475388384002    4.93744348999192
H         7.24598636428538    4.57876759057223    3.18695278366934
H         6.18784173112278    3.58062896519163    4.18086795060896
C         0.54425392383172   11.62200072573127    3.10397439452774
C         1.43697765717147   12.68963968495899    3.22548308605182
H         2.48453915693789   12.47064184439212    3.40054115974298
C         1.00698691487812   13.99606523297212    3.12770123590204
H         1.72550713359269   14.79888013123527    3.22221188646031
C        -0.33198108097055   14.29603886545805    2.90941365810678
C        -1.22500805972427   13.23805314594530    2.79434871603273
H        -2.27313277012911   13.44474791970039    2.62355061778470
C        -0.80318801096538   11.92712907823527    2.88691661598080
H        -1.51512523607445   11.11937197315420    2.78877883384908
C        -0.79941479033065   15.71885439153303    2.82576698752698
H        -1.70754345971606   15.79382263155759    2.23166765183658
H        -0.03448777653515   16.35167004460601    2.38029849830348
H        -1.01578169490547   16.10526432524439    3.82308079774497
C         0.59111246198572    6.40536604762675    4.67404597741209
H         1.11494505626398    6.65303486443422    5.60372823134626
H         1.22126656671398    5.69128393066004    4.12780830760852
H        -0.33126009995670    5.88489119510027    4.95287960452627
C        -0.67907250157682    8.87414911648629    5.15552300027551
H         0.01680768091444    9.00005973161960    5.99522713046365
H        -1.49900072605799    8.23411712150220    5.50442086577111
H        -1.10238239981199    9.86034501135085    4.92957097320279

