78
CSD_code = FICBUP | q = 0 | S = 0 | Stoichiometry = C28H46Cl2SiZr | MND = 12
Zr        3.92005618818753    9.69605945150419    0.43168540171009
Cl        6.22211567208646    9.34184656492598    0.73572278864576
Cl        3.79224199343218   10.57015804632964    2.60802892079547
Si        1.79007353808885    9.18061732090007   -2.01004779583175
C         3.13733685873462   10.49741837972782   -1.72040355618803
C         4.56355720889131   10.53602280846074   -1.86755627961249
C         5.05195842457864   11.55030226844601   -1.01358932866942
H         6.07605119178054   11.88660328249038   -0.96415917796474
C         3.98060242772555   12.15725646348084   -0.32028708657716
C         2.80628117982133   11.49565750550883   -0.74109031399292
H         1.80442009462069   11.84214509522597   -0.54121701574341
C         2.12534329019565    8.27275106840112   -0.36798559707803
C         1.76650332572404    8.49439457277102    1.00299750287401
C         2.72080522012404    7.82911199491605    1.80503851197121
H         2.67592480263710    7.73081469939187    2.87862665186580
C         3.68240367713584    7.19372398568577    0.98758365700608
C         3.32654188783218    7.48406349015095   -0.34766898039548
H         3.74844199761574    6.99672410819668   -1.21274929948148
C         4.09672158405223   13.44696532331084    0.46767810041039
C         4.19222998636856   14.60046116731669   -0.54605235563560
H         5.05105493617117   14.46600686130386   -1.19929282626641
H         4.29633545993434   15.55061802415137   -0.02693347145513
H         3.29701076507790   14.63742088937667   -1.16307508321389
C         5.36382794473950   13.42501227170166    1.33375146908327
H         5.38283197691000   12.53440374960830    1.96226846579151
H         5.39082075210260   14.30104570722855    1.97832109795903
H         6.26042049325666   13.43366363716659    0.71822240197222
C         2.87547228669192   13.67528954629918    1.36441185281142
H         1.96288558623913   13.74049409269025    0.77574265860370
H         2.98931106280217   14.61104158426451    1.90757453208092
H         2.78007195081992   12.87079465878334    2.09057052286623
C         0.46054968525884    9.04258647427144    1.55624202110582
C         0.39276564159226    8.86142881687027    3.07832592935885
H         1.19933710901772    9.40786882062014    3.56318154114730
H         0.45132157643732    7.81113528629610    3.35270289496226
H        -0.55299473530209    9.25112214921276    3.44945466492716
C         0.30810096981480   10.54006730300694    1.27070747693516
H        -0.55816658252495   10.93279092700397    1.80065075187923
H         0.15479390260068   10.71128844962356    0.21056616143678
H         1.19526963270202   11.07251604812100    1.62084220547522
C        -0.69994234371036    8.26519750223924    0.91885444666623
H        -0.62440597881058    7.20989345388763    1.16992315340005
H        -0.67801477637700    8.35891169859896   -0.16272210051995
H        -1.65292955959311    8.64118367583600    1.28476269359085
C         5.41501861349973    9.87909326764964   -2.94238096479752
C         6.86174787350392   10.38626275279155   -2.88041804949849
H         7.44895800003058    9.90765015427622   -3.66156116653054
H         7.31028184665702   10.14149771802789   -1.91961465658787
H         6.90933946499527   11.46077145243181   -3.03861007541074
C         4.82754153205410   10.24210829990688   -4.31377390532481
H         5.40732045814820    9.77767601413871   -5.10850182736273
H         4.84804567016909   11.32015620705443   -4.45463398807081
H         3.79664022005635    9.90977177072292   -4.39143654196502
C         5.46052059079275    8.35667993161160   -2.77697389373664
H         4.49261154824148    7.92066719000966   -2.99979222170795
H         5.76799610572340    8.10771639172710   -1.75880785398801
H         6.18595698293442    7.92961123650874   -3.46752252484356
C         4.68748603833787    6.17563778341101    1.48858101579549
C         3.92559903054633    4.86524704562306    1.75269448412523
H         3.13739297429564    5.02142383435063    2.48527223863865
H         4.60476625803563    4.10433198554829    2.13063346355377
H         3.47034213110281    4.50015676268315    0.83458989629876
C         5.78741552557104    5.90988550344101    0.45554401099800
H         6.48574605792089    5.17214161069481    0.84499476146950
H         6.34059010252675    6.82258179656527    0.24421186553154
H         5.37020556435186    5.51817830293083   -0.46972301039111
C         5.32724955987183    6.66348458908818    2.79581022742002
H         4.59560857133364    6.70556007026719    3.59937622291174
H         5.75641820131340    7.65699819735203    2.66501768243865
H         6.12058258814805    5.98386328596331    3.09959674278027
C         1.87101358506264    7.89965302221170   -3.43153199671550
H         0.87267123249947    7.50685715385954   -3.59661241491726
H         2.51257157257589    7.05123619778574   -3.22533562396995
H         2.19463483747295    8.34542774312652   -4.36565354432555
C         0.14264568628730   10.08059563436575   -2.38843518466055
H         0.07568544733732   10.23625506506256   -3.46061462972364
H         0.05251677582936   11.05473927242003   -1.92298235242765
H        -0.71975895270989    9.49010353109121   -2.09931439371210

