87
CSD_code = FICCIE | q = 0 | S = 0 | Stoichiometry = C30H52Cl2Si2Zr | MND = 12
Zr        9.25973753637393   -0.00007373293459    9.80967148229815
Cl        7.68156507010782    0.11915590341185    8.06069176440504
Si        9.85652660187121   -1.02247486715672   13.45559579151066
C         9.61343695400676   -1.54051652148617   11.64740716692384
C        10.40142420775867   -2.11704351268183   10.60255129680528
C         9.52198601133116   -2.56721039177693    9.59308564853153
H         9.81951947806751   -3.10010797876792    8.70211321322365
C         8.18119278470030   -2.33969656638556    9.98810460445334
C         8.23841770676458   -1.66421421120118   11.22921443212248
H         7.38985654680689   -1.47952801808740   11.87679990934771
C        11.88874423493563   -2.41060906279845   10.64293103332680
C        12.65982774755593   -1.11770099010876   10.92629997255682
H        12.41772425813872   -0.38566281552755   10.15569619451747
H        13.73211587813147   -1.30373374545510   10.90401741978453
H        12.40332666392076   -0.71806851106334   11.90101239298929
C        12.15109086058907   -3.45343466401304   11.74009805795989
H        11.64872529064910   -4.38609447592772   11.49347067314899
H        11.77586248640083   -3.11255452626853   12.69957772370323
H        13.21779918143324   -3.64846944077339   11.82741414324054
C        12.38888971135942   -2.98469762597648    9.31165460376581
H        12.18483352214314   -2.29762999437043    8.49433795397963
H        11.92161661116099   -3.94323047295267    9.09884448359177
H        13.46418468766605   -3.14233853599252    9.36490033030054
C         6.98639559961157   -3.05925264968418    9.38731586920638
C         7.20459636904657   -3.34763925044100    7.89732624377130
H         7.45208245216000   -2.43180511755597    7.36460820941609
H         6.29633831993672   -3.76126735938613    7.46451643816034
H         8.00431699119524   -4.06902614946568    7.74889323063198
C         6.86589526804665   -4.39445825654303   10.14560225595226
H         6.65914709728053   -4.21718488043105   11.19865723867314
H         7.79199377070041   -4.95972015064455   10.07077762182380
H         6.05898554828565   -4.99293829000123    9.72863160523621
C         5.67831747556558   -2.28030085450125    9.54996210507259
H         5.70246301998868   -1.37814388809615    8.94420611567218
H         5.49807987356026   -2.01715234292353   10.58975288073896
H         4.84496693636779   -2.89218601192442    9.21033977805853
C         9.09090194271395   -2.43646347303290   14.49986408298812
H         9.68673017498466   -3.34323348644705   14.44482354366586
H         8.09055891657243   -2.68860262420636   14.16429401279828
H         9.02548480256535   -2.15216232501629   15.54530055343897
C        11.57013041502819   -0.72497809001894   14.26587041260028
H        12.26157467586261   -1.55466914861009   14.16761183528063
H        11.40606089886754   -0.57306810328621   15.32881030507002
H        12.06471237796095    0.16797371064652   13.89658781744891
Cl       10.83721614420822   -0.11894974087100    8.06179399971361
Si        8.66311833594972    1.02178834631441   13.45540619117804
C         8.90610864828592    1.54051381105887   11.64740769526230
C         8.11814226379680    2.11730838533286   10.60268467005147
C         8.99757985928367    2.56726502000865    9.59307633979426
H         8.70001606546976    3.09999985303951    8.70201660087253
C        10.33835841505121    2.33965612616453    9.98803567696115
C        10.28111516677971    1.66441870219109   11.22928162678530
H        11.12967041156788    1.47970785558852   11.87689292628210
C         6.63073783523420    2.41052509754943   10.64291028018049
C         5.85952191109144    1.11767113546608   10.92639804912951
H         6.10154873796097    0.38560224514426   10.15592843098326
H         4.78720509133048    1.30345697350195   10.90413196502613
H         6.11609258948695    0.71793908172805   11.90100250140940
C         6.36843507356298    3.45338078277161   11.74001643715230
H         6.87074723081220    4.38608509457233   11.49337248480064
H         6.74354883130809    3.11252125897948   12.69955271094396
H         5.30169012539032    3.64825868654202   11.82717895509766
C         6.13056653281803    2.98459511062137    9.31162475382884
H         6.33458089363612    2.29752377416867    8.49433661451271
H         6.59781536371174    3.94311219178982    9.09872410177552
H         5.05528293802611    3.14222463126892    9.36481332973901
C        11.53302466137144    3.05939084333175    9.38726534720006
C        11.31477657563205    3.34767436335762    7.89726711297398
H        11.06722306268995    2.43185990156041    7.36453147668307
H        12.22301568202158    3.76135226621394    7.46446717891093
H        10.51506042956198    4.06908172690564    7.74895934603305
C        11.65343299201207    4.39453542082746   10.14572373256025
H        11.86011325492949    4.21733146020993   11.19881882645053
H        10.72731584913611    4.95974715762699   10.07080258485057
H        12.46030865161201    4.99308280666347    9.72879539609348
C        12.84100252462288    2.28030656316520    9.54990536613253
H        12.81690998252762    1.37816063939044    8.94402594258738
H        13.02127971058491    2.01716239205650   10.58971358244612
H        13.67426164774461    2.89236589247395    9.21039658344851
C         9.42826536213135    2.43627809181936   14.49961527679545
H         8.83265732009723    3.34322223839833   14.44481713911443
H        10.42859205291264    2.68859145268449   14.16422777447443
H         9.49388059174436    2.15223990086506   15.54508762549263
C         6.94943042971780    0.72512770750185   14.26594353527771
H         6.25790846221422    1.55477621502789   14.16766781732168
H         7.11330272622272    0.57307372078444   15.32890171383244
H         6.45490260760420   -0.16775168394119   13.89653785180143

