97
CSD_code = FICCEC | q = 0 | S = 0 | Stoichiometry = C43H49CuN2O2 | MND = 4
Cu        2.69324539623160   -0.17292134962718    0.95265570700935
O         3.38013269153321    0.15405227580965    2.62239865915503
O         1.76601467472291   -1.46179143092255    1.87430671591434
N         1.71663946416249   -0.47929054596126   -0.58926917342453
C        -0.20180537166171   -4.48595528889972    1.82702181687356
H        -0.39303137948970   -5.34329997189828    2.44819582587192
C         0.72611317585964   -3.56406469334709    2.25873052686862
C         4.30198914714175    0.98590293205488    3.03928333854702
C         0.97213046204311   -2.41596400087604    1.45229633000301
C         7.07566306236607    4.59527132779446    5.30030967913266
H         6.49281511528936    5.21618830924694    4.62318732441158
H         7.89316839860331    5.19198990243087    5.69979993456172
H         6.43543097724366    4.29982295140486    6.12678199263570
C         3.45396503746808    0.71613963631408    5.44618474730428
C        -0.05722909736424   -0.97247615721966   -1.89243103263716
H        -0.97856128506329   -1.41296063549632   -2.21590174969418
C         5.21092691628300    1.60465940192232    2.15094390779280
C         6.46972571656183    2.57424833275060    3.97692961742737
C         6.28843620802120    2.36155332028373    2.63361750016526
H         6.96733853604330    2.78787022326946    1.91820706996810
C         5.07054609101093    2.07981620883987   -1.43715626005035
H         5.37173183310925    2.44214115008468   -2.40036598744563
C         0.95347048262317   -2.61782083185724    4.52088953549559
H         1.21633249376732   -1.65239490883506    4.10393166639503
H         1.40767084952197   -2.71848798742156    5.50329573859334
H        -0.12887106008787   -2.66720375560277    4.63179541519660
C         3.71446636032726   -0.78988948374398    5.53930895815725
H         4.74721585554131   -0.97365190036357    5.83231517295080
H         3.53854656678414   -1.24982476740410    4.57448784699250
H         3.05776603519347   -1.24344837833191    6.27770860571585
C        -2.61149178249869   -5.18671136236938   -1.07659327977314
H        -3.14923395918278   -4.24193157007024   -1.04538848708701
H        -3.33076136123325   -5.97676232971956   -1.28336299088033
H        -1.89476903916391   -5.16352017425857   -1.89419285657218
C         2.85556045091855    0.89854164757220   -4.55094041408447
H         2.78510304677681   -0.17289197593577   -4.43467109928704
C        -1.91543463615920   -5.46556903329849    0.25827301755330
C         0.29656417993413   -2.32970576619513    0.21515649069903
C         1.43505891774871   -3.73756138747248    3.59267712697414
N         3.85418842626044    1.03160298614030    0.16820447469983
C        -0.63340043701355   -3.30349652949977   -0.17295582191143
H        -1.11085932869277   -3.19154594356782   -1.12946301384717
C         7.62766120881914    3.37257611322366    4.55425587646607
C         2.85299801945127    1.10829178727093   -2.07228675831985
C         4.96326973188614    1.54935127570846    0.74254076086818
C         8.59263493848843    3.86752832823159    3.47351526910722
H         8.09228832925250    4.54096290282600    2.78147862124148
H         9.01651337096701    3.03394197335788    2.91833763496278
H         9.41109125998176    4.41301814196433    3.93922397866161
C         3.02118026264188    2.83472807510944   -5.95845405873799
H         3.06350031531619    3.27305748480741   -6.94438728425763
C         3.62653000972742    1.32109395540984    6.84537862604233
H         2.83849964624424    0.93959097197581    7.49179618992571
H         3.54427780957184    2.40571932994265    6.81997087134869
H         4.57886358596587    1.04147901193410    7.29048266110036
C         4.43382775301694    1.28012433124728    4.42749445252659
C        -0.91008152303602   -4.38568227615330    0.62504061905174
C         1.78749241622151    0.27932716390519   -1.74243356262082
C         0.66065866862135   -0.00882647788575   -2.54466889485936
H         0.43251742899581    0.46039922171234   -3.48141408016985
C         0.62598782535478   -1.27118902850779   -0.68958288274426
C         2.91089943181675    1.70476573544618   -3.41689654425758
C         5.74722858695535    2.18090440941403   -0.25435618683601
H         6.69639993145576    2.65356917595905   -0.10391536425176
C         2.01169545769553    0.99540749128203    5.00726963909803
H         1.81487514942305    0.56480581816071    4.03104323437758
H         1.83909039327630    2.06935551333728    4.95429052504218
H         1.31299230081776    0.56604711212129    5.72242728759281
C         2.91479375721233    1.46148293724140   -5.81249266616009
H         2.87816599237421    0.82616597535348   -6.68521062811262
C         3.02417094199669    3.08398491631234   -3.57196617620443
H         3.05486297485974    3.71342167994211   -2.69483534337714
C         3.87479524529833    1.37621749108201   -1.16982256418465
C         5.50612855821444    2.04052633283086    4.83884229322560
H         5.61339237004509    2.24029464392597    5.89041728085349
C         2.95167128584181   -3.66823891291618    3.37599091169468
H         3.26982766275373   -4.47529603528868    2.71739310605620
H         3.47321250972340   -3.76966687953088    4.32540153024267
H         3.23255846833453   -2.72277965510775    2.92268282777011
C         1.13008925210489   -5.07858629826897    4.27088126763156
H         0.07903095576196   -5.16160929221009    4.53874211697489
H         1.71091427936196   -5.14684927218179    5.18873719749559
H         1.40895672626284   -5.91705312398188    3.63603087478241
C        -2.99159221049587   -5.54067352506663    1.35042286030702
H        -3.49110014493779   -4.57945624828200    1.45118282363785
H        -2.56268719329525   -5.80362990289682    2.31317528965829
H        -3.73557019062981   -6.29193349650046    1.09337550363725
C         8.41501440016042    2.48222936656937    5.52569253808023
H         9.26266111804046    3.02907525931489    5.93367910403738
H         8.78844442548495    1.60132031101828    5.00787744702345
H         7.79383796369342    2.15216626562461    6.35352384004034
C         3.07385466847059    3.64368250134838   -4.83537238354162
H         3.15407422701900    4.71526102758417   -4.94423115869380
C        -1.19018184051221   -6.81392536562703    0.14895306317100
H        -1.89175797927079   -7.59587121024091   -0.13447376114124
H        -0.73135740438985   -7.09468968382227    1.09283488425330
H        -0.40911095988822   -6.75947579371704   -0.60648528586964

