77
CSD_code = FICDIH | q = 0 | S = 0 | Stoichiometry = C25H43BrNO4P2Re | MND = 6
C         0.79664532684653    8.11857159343375    1.67777685390159
O        -0.09220514513330    7.92072705128484    0.96296848110088
C         1.37783215987778    7.35578305781462    4.16853051949168
O         0.83826349808594    6.70984871680869    4.96955111427621
N         4.19582125529412    8.62846589403120    4.78016025636226
C         3.86125293907818    7.81698168084364    5.97438932385006
H         2.87381819034883    8.12551264344098    6.32308475422641
H         3.76268267048585    6.77808824177221    5.65409612994007
C         4.84251537859293    7.90284112871216    7.11982110186695
C         4.67450835526952    8.84702315098941    8.12772637886640
H         3.82202925968015    9.51005475000870    8.10660413828859
C         5.57801914979358    8.94147380269410    9.17131800781715
H         5.42823622674461    9.68194186643438    9.94303406990564
C         6.66619922098521    8.08837101715546    9.22893602122891
H         7.37322767445314    8.16275276261802   10.04130384338462
C         6.83333151650585    7.13002865149483    8.24488896401579
H         7.66958694919727    6.44808002067380    8.28890122667127
C         5.92794365821332    7.03687307773190    7.20234570369798
H         6.06592711272156    6.27062384529841    6.45367530087627
C         1.25673096018880   11.95058092190949    2.42374429873684
H         2.30915579703928   12.13282585289480    2.17398607542065
C         0.52368507231086   11.54693207857361    1.15140038597486
H        -0.54823297430543   11.47052616867523    1.31996586743652
H         0.88326290883467   10.58613562139336    0.78553274088425
H         0.69354747685518   12.29058810133286    0.37484844877608
C         0.68852990591705   13.23629429896668    3.01436568306590
H         0.93207388384935   14.06881550359906    2.35641080190800
H         1.11819106038069   13.43802483683057    3.99286386772855
H        -0.39508378720015   13.18966848366818    3.10085223731255
C        -0.31652801412162   10.54882732733476    4.49090276572332
H        -0.67815006354988   11.58158830471892    4.49639656808422
C        -1.28304038331983    9.66668411829543    3.71289595663261
H        -0.93445141513139    8.63478752795396    3.72323484013975
H        -1.36220041408817    9.98130145265869    2.67629441274702
H        -2.27365702209192    9.70459176791351    4.16265086204207
C        -0.20936325493169   10.06794068208796    5.93405775817052
H        -1.20404222470097    9.99020373854676    6.37089399867036
H         0.36729853616211   10.76538541776727    6.53929656794766
H         0.24918585999593    9.08103809676070    5.97341972313141
O         2.29910932937172   11.36086096496220    4.69221911066901
C         3.09510331042500   10.74345213343482    5.68795002193999
H         2.49108000588377   10.05722112074698    6.28263613658940
H         3.41870972640717   11.57007154150497    6.32940657765878
C         4.34284136693344   10.05238299334493    5.13368371181533
H         4.63770275017940   10.59914612701883    4.23214937382433
H         5.15440548946929   10.16524142467030    5.86899873606427
C         3.00708580454104    4.90334775631086    2.03260214311851
H         3.61156188399889    4.28826867354389    1.35930240143238
C         1.54195127847363    4.83648148455538    1.62589827143783
H         1.17679378903148    3.81330401975587    1.69581140491653
H         1.39642764259599    5.18420294602384    0.60722541115449
H         0.94512525241525    5.46634410816187    2.28502541329968
C         3.18282704352983    4.38084138018038    3.45465642764432
H         2.72682693167491    5.06460600718439    4.16910148428517
H         4.23539526328115    4.24435957366621    3.69704722501581
H         2.69082828715160    3.41463163202816    3.55752893121116
C         4.09313718077527    6.86214314030952    0.09595313564078
H         4.79247991036708    7.70721115204497    0.12478785413339
C         4.83910890578107    5.65650551348427   -0.46450272221796
H         4.15765778412723    4.83790592251691   -0.68694355161462
H         5.60167244531053    5.31244287524580    0.23077428147183
H         5.33002060668910    5.94129082097208   -1.39370980230477
C         2.91632689030819    7.24719877461099   -0.79026428351552
H         3.27860568378288    7.54288689076525   -1.77339559354310
H         2.36833631671483    8.08686828463129   -0.36647471159044
H         2.22383136870400    6.41859698975780   -0.91851826265311
O         5.15269372825628    6.57288200798804    2.39984503935515
C         5.61284743891396    6.78157501945526    3.72130303133944
H         6.67967074112072    6.53517660846531    3.67495878248155
H         5.12883000051464    6.08413616189478    4.40652356909286
C         5.49489058810395    8.22485778149010    4.21180533781775
H         6.28853487828212    8.39144690788137    4.95673166570841
H         5.70657706807946    8.87193854957141    3.35454425449440
Br        3.84085677709232    9.90069128065591    1.60187182074659
P         1.35725460177995   10.55418121993194    3.64931655194441
P         3.61951300520856    6.66739240286569    1.88724064481076
Re        2.27733161959192    8.43932455324739    2.87038412602168

