41
CSD_code = FICHEH | q = 0 | S = 0 | Stoichiometry = C14H19O6PW | MND = 6
W         1.12996295969678    0.15002357914292    6.17770892700088
P        -0.51010511772334    0.10557938896834    8.07654330411196
O         0.01903893717166   -0.30932395528300    9.55955217947912
O         3.21291306324095    0.27193909983852    3.85884863994696
O        -0.72479310275948    1.70066360260828    4.17897413096233
O         2.50722096062327    2.75203638795872    7.26573138445350
O         3.35987669919956   -1.24796371767114    7.88831825813241
O         0.03616813223881   -2.45100160115510    4.79971778580378
C        -1.09707530788837   -1.14823578671868    9.19996034660624
H        -1.99166452526963   -0.89565037620570    9.76524210769958
C        -0.90924848740498   -2.64887503215490    9.05842276992180
C        -1.20357339566453   -3.29319138573637   10.41900852940793
H        -0.52109457277009   -2.90715272805004   11.17215414947417
H        -1.07787440366673   -4.37116119396481   10.35768981224805
H        -2.22361854699548   -3.08500818843888   10.73539067390866
C        -1.91613219846852   -3.14391487486592    8.01553607691675
H        -2.93359245436328   -2.90476387658175    8.31855443472416
H        -1.83712378975549   -4.22132020840818    7.89730275124314
H        -1.72409018193526   -2.67329465777389    7.05257214043650
C         0.50990632850704   -3.00403405017871    8.62884948920513
H         0.72362652228857   -2.59998097514800    7.64025688634780
H         0.62744108252798   -4.08447703560114    8.59043612840337
H         1.23107304068887   -2.60206390579391    9.33646424051142
C        -1.70806840694540    1.54940505485683    8.32019505582456
C        -2.84457419629512    1.31990892006719    7.32479806432544
H        -2.45182106697040    1.21122732677115    6.31436054385559
H        -3.53499582860538    2.16138560319598    7.33473612567985
H        -3.39831877242174    0.41487674196435    7.57317467352835
C        -0.94085688301670    2.82334104498622    7.97001163236598
H        -0.10267551106584    2.95796129081467    8.65362581993615
H        -1.59191083688470    3.69286199733395    8.05029703888831
H        -0.55754628840249    2.78211300441484    6.95020855125879
C        -2.24355552269792    1.66775489549109    9.74568917227032
H        -3.01765553352521    0.93163009546614    9.95218969159421
H        -2.68580275817026    2.65260558792113    9.88621552115944
H        -1.44013501228423    1.55307920166986   10.47188126225881
C         2.45052590828272    0.22191562902936    4.70888258059173
C        -0.11108685313088    1.14388089136932    4.96752680013793
C         1.94484317991563    1.82674944769794    6.90568364007409
C         2.49666401323738   -0.79046608000229    7.30138115175300
C         0.40892872746547   -1.52545916183540    5.35740752755289

