27
CSD_code = FICHAD | q = 0 | S = 0 | Stoichiometry = C9H9Cl2O5PW | MND = 6
W         0.32277991882930    4.57459792242754   -1.95313912325919
Cl       -0.85403907836649    2.21597060478576   -4.49605190676271
Cl       -2.06448927298549    1.83316823842690   -1.70269276507167
P        -1.47171120404949    3.26688571102379   -2.93476516359506
O         2.73475125442319    6.08060992328233   -0.65073821539903
O         1.61533539996973    4.88708272920004   -4.79824691711263
O        -0.95949191221910    7.42237153230739   -2.25061560120465
O        -1.05189160253860    4.26091513347642    0.85251507231587
O         1.77588974545413    1.81515076076888   -1.57690503998113
C        -3.10352472112455    3.97621531957318   -3.54124096705558
C        -2.74252632011997    4.97438120417732   -4.63683728494453
H        -1.99856385357541    5.68731656231938   -4.27877755844093
H        -3.62668869479602    5.52951980269330   -4.94477385626374
H        -2.33850232393531    4.46379094120133   -5.50945943968517
C        -4.03700120482061    2.89488344054051   -4.07192641422387
H        -3.58470629743177    2.36048395512529   -4.90511328335192
H        -4.95957679117630    3.35336736210593   -4.42362142623031
H        -4.28990264295079    2.17778792598314   -3.29357186431387
C        -3.71791839881753    4.69035946517735   -2.34139346032101
H        -3.98294804685695    3.97934247169981   -1.56030978166042
H        -4.62039826113009    5.21989705003140   -2.64124535619511
H        -3.01793727722134    5.41595161567794   -1.92494119685913
C         1.85511175564392    5.53386433481585   -1.12721132050281
C         1.15235532682468    4.77317534185254   -3.76349265160556
C        -0.53926050707556    6.36434737635239   -2.16277784996594
C        -0.54594145878506    4.37297194640855   -0.16220925688752
C         1.24679646883252    2.81449132856596   -1.71495737142338

