62
CSD_code = FICJOT | q = 0 | S = 0 | Stoichiometry = C25H32N2O2Pd | MND = 4
Pd        0.75267899602773    2.89152767624587   10.74155211143823
O        -0.52603906374288    4.12024887308279    9.83742192234187
O         2.01229281184896    1.67121771799967   11.68147082699239
N         1.63338723319313    4.65679474737470   11.09594264811627
N        -0.21432735183470    1.14644635146852   10.54197224196700
C        -0.20308340863647    5.36199610087292    9.86091483525948
C         1.49719661522805    7.04217855667309   10.77531130416087
C         1.44708434826048   -2.68561539472683   12.26726613267618
C         1.65167256793744    0.44078348070163   11.73208972772299
C        -0.17939514613167   -1.21079149281986   11.04939959151454
C        -0.08229213473735    8.51749389871472    9.49876638271319
C         0.37494995983460    0.09562823180031   11.08849733472126
C         2.52151269053997   -0.43886371771169   12.39014386344527
C         1.01910263834351    8.23955468317637   10.30910170165033
C        -1.47422161358478    1.06059593005818    9.83647999436484
C        -1.04570919377548    6.24106122202986    9.16773790753536
C         0.92381557191293    1.47803057314452    7.57731019335491
C         0.27827405253660   -2.39723990005021   11.56216089136314
C         2.87270276755149    4.74253091572566   11.83706042696256
C        -0.99369525624374    7.61371911741578    8.99577959601501
C         2.44009711736339   -1.79997427445716   12.62803332738438
C         1.02003878644537    5.71718548042755   10.59695117475525
C         4.11165484322532    4.90747225317300   10.93897565744607
C        -1.32734178390549    0.57062992310330    8.38476919933460
C         3.83723080125141    2.38135877431505    7.97338485429804
C        -0.59927583038559    1.57234955397900    7.48400235842876
C         3.54327540796665    3.63140844418760    8.79953526362685
C         3.11909907853076    2.37133201217833    6.62207048755970
C         4.39256076276919    3.67897615784224   10.06949744491886
C         1.59880947817893    2.52910978971474    6.69808552359234
H         2.38839507121388    7.12511411819022   11.38150184929086
H         1.58445048591803   -3.71811469277217   12.55989481362058
H        -1.12571923180034   -1.28689055922237   10.53272569658919
H        -0.23633034848403    9.55798844375575    9.24535969667942
H         3.40280716431624    0.06324813128279   12.77261656586515
H         1.59500985838983    9.10875499862401   10.60778462126575
H        -1.89770593789584    2.07096583210248    9.81596710937469
H        -2.18091634366474    0.41233912277396   10.37385564147149
H        -1.87081467577552    5.72798859138074    8.68698166549683
H         1.24808399582854    0.48001235856404    7.26931778174923
H         1.22843402558866    1.63942704053986    8.62537702841957
H        -0.36810357706298   -3.25027470223218   11.38621900744182
H         2.97596250258157    3.80459972811048   12.39384621880612
H         2.83666189424582    5.56358308142197   12.56738100860139
H        -1.78658730066810    8.03014230490598    8.38573305383839
H         3.27486405496205   -2.22071516145802   13.17611832108643
H         3.99350124676575    5.78530147171359   10.29928678115879
H         4.96633824951805    5.08309198336713   11.59645839902005
H        -0.79946184361678   -0.38586370605518    8.36710589284037
H        -2.33456454725574    0.40581692193484    7.99504197857648
H         3.55344031259036    1.50011532401604    8.55253781831526
H         4.91314859958741    2.31767018407678    7.78685245328754
H        -0.89842535197649    1.39829041848483    6.44661841259491
H        -0.90555015095873    2.58492409130276    7.75773576933181
H         3.73778675610650    4.52265306196849    8.19632946024427
H         2.47839088168264    3.62423846025064    9.08427963224454
H         3.51737780243741    3.18107635030871    6.00500947727894
H         3.35156132093956    1.43071622082239    6.11592565372151
H         5.44878105942017    3.68131799583360    9.78616188688688
H         4.20179256446680    2.77625809391843   10.65497076074896
H         1.19977574024946    2.45621845471846    5.68218012183488
H         1.34545997638398    3.52166035173041    7.07694049665834

