54
CSD_code = FICJOR | q = 0 | S = 0 | Stoichiometry = C21H21Cl3F5NO2Ti | MND = 6
C         1.27072143626248    3.91245473064593    3.34318917382712
C         1.27058795621069    4.57199329961612    2.10868225159381
C         1.10619544962108    3.87210743421027    0.91832820545835
C         0.91285015809298    2.49378594347152    0.93985423908112
C         0.89782462882682    1.81672273184836    2.15814800880345
C         1.08503984309357    2.52657669849103    3.33186434766366
C         0.92355323293507    5.63277706622713    4.86287627159478
H         0.09547519979484    5.97413827715793    4.23326822271538
C         1.19483560834192    6.43481584946002    6.00301249403511
C         0.40452416119973    7.57435145020561    6.24266811966895
H        -0.40965861150035    7.79925042254121    5.57002231836549
C         0.68014397695497    8.38411624874350    7.30997450141693
H         0.07744614744311    9.25715737366482    7.50554774428498
C         1.76684718875422    8.09994272406274    8.14126930144071
H         1.96577958353452    8.78261353952903    8.95060205731131
C         2.58278565305376    7.00159139624115    7.95591356958549
C         2.27770624953645    6.12305712444926    6.87950487682333
C         3.83113553608974    6.75924173650930    8.79437337646412
C         5.04634193510444    6.98046684680063    7.88029619248181
H         5.01484188188920    6.31502307211367    7.01636427116576
H         5.96373579088000    6.78348530549686    8.42971262371017
H         5.06720275303676    8.00731027145615    7.52067150628634
C         3.85462989802036    5.32660390207971    9.34945558754756
H         2.90746483146708    5.09047062115375    9.83343983299338
H         4.64958915342580    5.23518391377460   10.08593489811015
H         4.05104114063496    4.60609642700867    8.55591986704978
C         3.93089122411048    7.72738565818364    9.97828933090597
H         4.01031340981619    8.75821664482588    9.64280955876234
H         4.82743880149131    7.49899204900804   10.54968341052140
H         3.07346848414743    7.62856763079066   10.64068044275442
C         3.57324970581598    1.17762363853572    6.33131979742791
H         4.65634209715349    1.34013061987219    6.36830834923715
H         3.30729610590247    0.70374883748092    5.37868443098570
C         3.04255284769251    0.38336077430360    7.52006040107390
H         3.64082998852748    0.58200065495208    8.40996937502081
H         3.03858161628913   -0.68574217982204    7.32605286768321
C         1.64292047898016    0.96830209337965    7.67989837371144
H         0.97375159531206    0.55847019782843    6.92375411124027
H         1.21748747510264    0.80451195637009    8.66674039171138
C         1.91045367207040    2.44240692709109    7.40068262395149
H         1.03352486454727    2.98227199383921    7.02790296767532
H         2.29804926512816    2.94586648172562    8.29805522478388
N         1.55338827170738    4.54693523882084    4.54327199257459
O         2.95708605963404    5.03975034837615    6.65895606160237
O         2.92060889048727    2.46294106640291    6.38543983191833
F         1.47007635810447    5.89339377200131    2.07400577738508
F         1.11368772506666    4.52273634416950   -0.24475445757742
F         0.73260435209905    1.82536467271369   -0.19867810911708
F         0.70160551302701    0.49807600997244    2.19215071984321
F         1.07715867590263    1.89151287100422    4.51587380327820
Cl        4.01069196214473    2.75815134208792    3.63248750086431
Cl        5.60580693990704    3.73475360000457    6.25106404551352
Cl        4.23583564098240    5.89968634619001    4.20511257135427
Ti        3.63365719614876    4.11615000293949    5.34398474543082

