43
CSD_code = FICKIM | q = 0 | S = 0 | Stoichiometry = C15H21Cl3O3Ti | MND = 6
C         3.11594583479748   -0.30765531456119    5.11591161710688
H         2.89676623561645   -1.11359030708650    5.83958930315421
C         3.70681536517015    0.86640535709642    5.66619335380692
C         4.00365257192410    0.93879932117660    7.04132850086882
H         3.77139259583331    0.09314236143834    7.67137285140050
C         4.58223886514212    2.06646549814372    7.55459787768025
H         4.81535008496362    2.13145349880272    8.60601872581721
C         4.88414679909357    3.14910740390086    6.71951481264922
H         5.34576412109908    4.01305309248598    7.16916289579831
C         4.61478936824504    3.14347953803526    5.36712163574477
C         4.00520805356632    1.98001979775958    4.82018123810390
C         4.94659626990332    4.30114640471720    4.43642749396164
C         3.65538307461959    4.81222903435279    3.77670889932047
H         3.19113618044239    4.04670249870937    3.15318299293636
H         3.88212628284163    5.66766043810736    3.14460364429629
H         2.93951767632246    5.12187980064333    4.53629839234968
C         5.59672045556955    5.47078461477484    5.18260621954576
H         4.93131819595098    5.87083602651251    5.94430591310724
H         5.81286028564750    6.26803667082932    4.47545532672833
H         6.53465248224931    5.17081493765598    5.64421896297532
C         5.93102211807309    3.81199884529213    3.36118556335631
H         6.83332481831150    3.41798529927033    3.82579540351063
H         6.20743810194185    4.64090952238035    2.71368845467933
H         5.49338464970852    3.02974455456319    2.73812811712335
C         1.43048047254109   -1.49068769927670    1.37271868503139
H         0.55902023723369   -0.90093860331422    1.05444692451530
H         1.33213562144581   -1.73193763805376    2.43640681233810
C         1.63048044510831   -2.71305816908284    0.48471432108008
H         0.68672569301917   -3.16659035198877    0.19231119939470
H         2.24413265334937   -3.45801290590729    0.99343326762267
C         2.39737923140814   -2.10572497313920   -0.68567200005854
H         2.94502146535255   -2.84154474104951   -1.26906139220631
H         1.71688309997693   -1.56341063011754   -1.34340332189436
C         3.32945318084922   -1.13740888124994    0.03413122244816
H         4.24534955647823   -1.63940913564603    0.37715991370011
H         3.59924424235033   -0.26059394873872   -0.56721593705361
O         2.82824915391353   -0.51896649170830    3.93032699997866
O         3.70762971164873    1.90098135582415    3.56547120628787
O         2.60742723163425   -0.68370164278383    1.19666644782592
Cl        5.25347992327645   -0.25400511646516    2.39424755204716
Cl        1.01958539753699    1.34897528608194    2.60265436369199
Cl        3.57927379931394    2.04533346960309    0.60946687409100
Ti        3.21109839652493    0.77909192201229    2.36059866513226

