84
CSD_code = FICMOT | q = 0 | S = 0 | Stoichiometry = C30H48P5Re | MND = 6
Re        1.09420948261980    4.15984217579715    0.89738194283423
P        -0.47394307986330    4.62053437702272    2.60550884019362
P        -0.54089418340754    3.33475290636173   -0.59924062094024
P         2.80181624842615    3.02584573715688   -0.32018937807199
P         2.97361292500445    5.07303784091972    2.03988029677656
P         0.88216456364578    6.08691895484713   -0.40815461657096
C         0.26635230511618    4.93386533217481    4.23857651928369
C         0.66436659592899    6.22666376738195    4.57051753635828
C         1.26791887985713    6.48307421131878    5.78739157438544
C         1.48886276270818    5.44698173784865    6.68238021902334
C         1.11442574883145    4.15503978218506    6.34863285183580
C         0.51014133267354    3.89562704984559    5.13125120663352
C        -1.59217311276487    3.22994813825162    3.07239586863535
C        -1.42794987591499    1.97324213598019    2.50407657308498
C        -2.23799790758129    0.91654172697968    2.87925902779439
C        -3.22660844985625    1.10260606436178    3.82988189704245
C        -3.39844099474034    2.35254005909131    4.40173364951927
C        -2.58843125650899    3.40907895143361    4.02849422897370
C        -1.75217534879194    5.94860587570597    2.59364021734207
C        -2.30156369432044    6.23274549077328    1.35025484010771
C        -3.31380161440980    7.16141205279878    1.20171974354527
C        -3.78618676537136    7.83772114294610    2.31377477221129
C        -3.23631953004539    7.57764117616777    3.55831207746680
C        -2.22985942634336    6.63911434485209    3.70487360941740
C        -2.34320457662600    3.14380242108024   -0.24106656673737
C        -0.34756422672957    1.74962652875632   -1.50387332542862
C        -0.55254556700529    4.44416766227608   -2.09776783161068
C         3.39291550384229    3.26006323780836   -2.05560422698051
C         2.80891114800999    1.18827227049769   -0.27466952509833
C         4.40259947491812    3.28096806994624    0.56913794475590
C         3.50438824338269    4.31363680940597    3.62426766465856
C         3.33644214477320    6.83329752212251    2.41307786465388
C         4.48111629486992    4.72179011906757    1.02691476486715
C         2.25534092167283    6.64921105604778   -1.49406049157238
C         0.44245360566392    7.73074101088420    0.27764754506546
C        -0.42264607513653    5.90923836720402   -1.72418687266540
H         1.28645514461317    2.79563091813731    1.81596672027239
H         0.47575655800122    7.03060348382045    3.86936431063982
H         1.56481336105615    7.49128494882397    6.04338974954552
H         1.95566719837016    5.64770885498025    7.63615152340204
H         1.29442945410216    3.34643374085179    7.04303557017429
H         0.22510727156407    2.88767635144164    4.86419335044946
H        -0.65031185057054    1.83977349554481    1.76168895532105
H        -2.09643783241288   -0.05666317057117    2.42937633992869
H        -3.86075266484904    0.27901608828754    4.12585292677672
H        -4.16774607280619    2.50523349373984    5.14576458602399
H        -2.73578139684558    4.37533514526891    4.48737429801724
H        -1.88821387080440    5.71042256120618    0.49709239661764
H        -3.73084052538805    7.36290893857660    0.22436474295616
H        -4.57479764111207    8.56934358741799    2.21196313763663
H        -3.59697744371833    8.11036942705516    4.42734079180752
H        -1.81605631210224    6.45823608421196    4.68714514427826
H        -2.65628941006053    3.76103139745672    0.59752777937880
H        -2.52225999324179    2.10205174718656    0.02273037278717
H        -2.92343596201603    3.39905714098375   -1.12889769556449
H        -0.31579887339130    0.93585809103010   -0.77988065843213
H        -1.19049215507935    1.60854566588105   -2.18224862584812
H         0.58168521335672    1.76681672004588   -2.07034369521048
H        -1.44349436378692    4.24833480520886   -2.70353480618218
H         0.33001615224009    4.14151902761502   -2.67351907473558
H         2.54765081096572    3.24156983040357   -2.74359653212080
H         3.89751562111846    4.22159106896090   -2.14081950092425
H         4.08819934533408    2.46176690825290   -2.31693261751005
H         2.20529628431878    0.77013140873258   -1.07548430976848
H         3.83770811725108    0.83953379104489   -0.37673836307137
H         2.39928597269803    0.87618932540985    0.68483958007735
H         5.23901692031515    3.00095328875872   -0.08038260795299
H         4.38101562079405    2.61740473909373    1.44012814502119
H         2.99680961327946    4.81331512650124    4.44550521108512
H         3.21286481786790    3.26391250358308    3.62254403902719
H         4.58368473860842    4.41025936537300    3.74891551817552
H         2.57347352429171    7.23363311344645    3.07627568650096
H         4.31214340885020    6.90109551139409    2.89644343694633
H         3.34644632434047    7.40683067527477    1.48700263353451
H         5.37894348201136    4.92225477540219    1.62209318813433
H         4.47875656996325    5.39279040131831    0.16218338368348
H         3.15829697279935    6.79560982360653   -0.90187854228784
H         2.44479307516432    5.88834826706834   -2.24963099859714
H         1.98356479308947    7.58887554320231   -1.97877148819903
H         1.32374163511754    8.15755047816696    0.75521660639342
H         0.10922582608922    8.38763117228664   -0.52821039031806
H        -0.34463078586747    7.62890905705124    1.02203779258188
H        -0.13512146815794    6.51403194101244   -2.59171018149470
H        -1.36885770186352    6.29918723332619   -1.34139764980750

