54
CSD_code = FICNAH | q = 0 | S = 0 | Stoichiometry = C21H31PPd | MND = 5
Pd        5.44449309046826   13.24936885122948    2.36319099260086
P         3.95214518997316   11.88046725485425    3.37987028336267
C         4.44692926762332   14.95332089849283    3.15815195750604
C         4.08325819638520   15.66113440562726    1.93967429165995
C         4.85065889713175   16.53065828235003    1.25756982674052
C         6.26380205637115   16.84309811576664    1.59826093216045
C         7.22689693974247   15.77868049735438    0.99521773866210
C         7.16060234487685   14.43088784979193    1.63947428491506
C         6.99460034517300   13.26833733762880    0.86886174820878
C         7.03783370480411   11.98919624427225    1.43732082601836
C         3.51603972619961   12.06832799547156    5.15541617776037
H         2.98987787152103   13.00959421797815    5.29967714668059
H         4.43575302293502   12.09629774410755    5.73870651457278
H         2.89598990099643   11.24101226911342    5.49764007991116
C         4.09089905875474   10.02929753034722    3.23899516896610
H         3.22889304239474    9.56743438679108    3.73717347234947
C         5.38999440900386    9.60319144406133    3.92032187892832
H         6.20851015384270   10.19606031316435    3.49671022084442
H         5.33775463673686    9.82002522226318    4.99048466147497
C         5.67369179392703    8.11962362353081    3.70883479887694
H         6.62158784405019    7.85493336070879    4.18226286565809
H         4.88648871055891    7.52689146690460    4.18204539387924
C         5.72233642613817    7.79611904951487    2.21970278269804
H         6.53156598075085    8.36170043403668    1.75283141587384
H         5.92710217094154    6.73358201477560    2.07339418522882
C         4.39760354065261    8.16835797025692    1.56260210684042
H         3.59528973796380    7.57309749635257    2.00649974419199
H         4.43011840418727    7.93974441204746    0.49522267096923
C         4.09563656141882    9.65051083463250    1.75997873514412
H         4.85498426416982   10.25533038155325    1.25053581585762
H         3.12586070751835    9.89121124565685    1.31569627454205
C         2.38565775322656   12.17688814284389    2.50167902465379
C         1.12422871628658   11.89376599141089    3.00895625057717
H         1.01623498997261   11.48437052194358    4.00290483307795
C        -0.00103301213119   12.14255816839500    2.24192867832452
H        -0.98175397607847   11.92673705747777    2.64087758781867
C         0.12577132321748   12.66742153653718    0.96658957358836
H        -0.75609700695062   12.86135243735040    0.37388883745057
C         1.38222670335928   12.94775326565002    0.45208137074445
H         1.47958525105170   13.35990335101462   -0.54163120853444
C         2.50707085512436   12.70518860879773    1.21764018716860
H         3.50973953931130   12.92990580960350    0.83298826964197
H         5.19959503859457   15.46509375300098    3.77325685407842
H         3.56609310845201   14.70402857976935    3.75767580561445
H         3.07395464430942   15.48088900666215    1.57389882490762
H         4.47300138782830   16.96685385850263    0.34209071936874
H         6.54185001198889   17.81592334778418    1.18756996778126
H         6.41690490694192   16.87057735364202    2.67865866579406
H         7.00899191003814   15.69285027133940   -0.07343889684686
H         8.24273755659414   16.17178903239239    1.10516991858662
H         7.71940143604382   14.33971026578353    2.58260156918195
H         6.70117341120642   13.37624278596956   -0.17731738515637
H         7.66889314738809   11.83895333212052    2.31888832735726
H         6.96327430700058   11.12735037138235    0.78161723174111

