60
CSD_code = FICNAG | q = 0 | S = 0 | Stoichiometry = C28H28AsIrO2 | MND = 6
Ir        0.60917831131742    1.82822952643179    3.24014188548993
C         2.90342805072505    2.16685482463428    2.15688157423232
C         2.14668655906227    1.60835832139836    1.18795832519594
C         2.07673325324971    0.15158837063686    0.82608642684140
C         1.33859395342594   -0.73816344334616    1.85986691290249
C         1.27104944696992   -0.19968159240527    3.30107609242196
C         2.60948391951622   -0.43839336304694    4.02921604127071
C         3.87848355932584    0.04443292192349    3.32509218322575
C         3.95207472224253    1.54388266096763    3.04195941450443
C        -0.85105927984862    1.40474390425872    2.11463915970521
O        -1.90331973858500    1.32621928210669    1.63903154273806
C         1.11681381499084    2.11385753364267    5.01769156313225
O         1.20784009910563    2.32024411534275    6.15479263448860
As        0.03177096603610    4.19073063210435    2.79997377434900
C         0.31930984894124    4.82957715931480    0.98897965008235
C        -0.50452996221546    4.35227439453130   -0.02700207293440
C        -0.28627590103858    4.72418656853437   -1.34065803029255
C         0.76882332754064    5.56663644306504   -1.65495023177467
C         1.60424554287283    6.03166848465891   -0.65349717033559
C         1.38335344952380    5.66171124931067    0.66250969102047
C        -1.84164794817923    4.61120514677015    3.05959545883395
C        -2.53829497697977    5.55448814489253    2.31572912916380
C        -3.87144199465012    5.80930647847614    2.58853504579459
C        -4.51507697775645    5.12615684035119    3.60676084568394
C        -3.82767690659408    4.18024158735371    4.35013376652855
C        -2.49690815363627    3.92305529038729    4.07439114743329
C         0.86310719166528    5.64226961498547    3.80168396423545
C         0.31144935850819    6.91682294026472    3.82915630222825
C         0.93374720385702    7.93165963388409    4.53406009735806
C         2.11335191736086    7.68142251941313    5.21653225602010
C         2.66865629846445    6.41319545098501    5.19611896879877
C         2.04338765438046    5.39865339380127    4.49194944960517
H         2.95592652368425    3.25860334193354    2.16415808636788
H         1.63380873969706    2.28427996576984    0.50680360201828
H         3.09218564668100   -0.21797085560991    0.67375547142526
H         1.56277580768514    0.05881837995110   -0.13278142955853
H         1.81489174576499   -1.72468648443026    1.86861047360277
H         0.31533060486374   -0.88259677126917    1.50758025709608
H         0.54717963802250   -0.84407248345348    3.82245896188318
H         2.72800807235812   -1.52062175049241    4.16796497563101
H         2.56597382239830    0.00127779896731    5.02771848525702
H         4.02257353947010   -0.51729864645505    2.40538036217929
H         4.72668365656647   -0.19904602458389    3.97333039918131
H         3.95514227505976    2.07638041948674    3.99694849930345
H         4.92154267879159    1.74990280496503    2.56811249631721
H        -1.32469506175897    3.68651807948869    0.22486498522664
H        -0.93601009589286    4.35568018652068   -2.12148635148022
H         0.94095788051204    5.85697177156446   -2.68083643552554
H         2.43090097718563    6.68342246047888   -0.89779750564435
H         2.03924288026547    6.02495822186396    1.44815593875265
H        -2.04130298091329    6.08317104763463    1.50773801727410
H        -4.40973594494284    6.54141843696802    2.00304990577204
H        -5.55567078496702    5.32666179127591    3.81582515276920
H        -4.33118298447236    3.64067454486162    5.13894730989027
H        -1.94520512415646    3.16829349456062    4.63296106661783
H        -0.61448459331455    7.11393182402773    3.29988357701922
H         0.49746993962386    8.92024705638199    4.55307866353666
H         2.59685103111476    8.47484482410838    5.76721586060407
H         3.58574552788541    6.21430295762977    5.73159242932422
H         2.46385997318909    4.39779857221764    4.48073094720461

