83
CSD_code = FICRAM | q = 0 | S = 0 | Stoichiometry = C28H42Cl2N6O4Pd | MND = 4
Pd        3.48151947761532   -0.00078160362986    5.35942121495991
Cl        2.43726083098917    0.88882014450416    3.50083185921399
O        -2.65574326379188    0.77846387177694    7.35657972038690
O        -2.59440821610901   -1.46851707355611    7.86714417913375
N         2.14979082735337    0.97526055138098    6.55229069187323
N         3.32563386177951    2.88399271207551    6.10189895725746
H         3.39811599681332    2.44093646734009    5.17745021546199
N         2.12963396063356    2.77099111693499    8.08800337257475
H         2.54268677501482    3.68294089593722    8.22854199919981
C         2.53323206916138    2.15910426283293    6.94269382182377
C         0.98530053998960    0.33504357001179    6.95704556661741
C        -0.23309464370495    1.03966401610352    6.95939781077620
H        -0.27005544041005    2.08522192632655    6.70377971348333
C        -1.36211958226324    0.33227029544279    7.27856505625935
C        -1.32218995426877   -1.02774098398861    7.59080326449287
C        -0.13939033767859   -1.72575396955077    7.59727316323318
H        -0.11326089454261   -2.77258654248274    7.84949149287261
C         1.01710405782542   -1.02448260378087    7.27163147552853
H         1.97941021872047   -1.52305040494353    7.30269924660870
C        -3.43264081593489   -0.34686368906469    7.70462476339665
H        -4.16791873381024   -0.54738378133444    6.90778009780648
H        -3.96810443706635   -0.14665313433871    8.64676061175170
C         4.57346476680445    3.52386459304318    6.49574339981967
H         4.40443759873007    4.10050144584858    7.41408998664222
C         5.63761411200420    2.45368697430927    6.74837665913663
H         5.40073217093292    1.87937529149869    7.64271399394327
H         6.62004456329255    2.90165426439282    6.87305496073142
H         5.67484900488124    1.76114018935122    5.89707087326340
C         4.98752165819859    4.47392603000699    5.37856300614438
H         5.18133293030687    3.91229409080493    4.46830839103132
H         5.89042429533885    5.01110588393489    5.65520595804689
H         4.19693244717338    5.19331710919617    5.18090720341524
C         1.84855241316848    2.06728606813909    9.33387439871953
H         1.10813754332234    1.29019411220037    9.12456028863571
C         1.25594933829284    3.06994429259958   10.31619753284829
H         1.98247711630340    3.84311129660216   10.56051837075442
H         0.97132237310379    2.56483619181242   11.23448695771233
H         0.37308377784365    3.53960312704316    9.88999380755298
C         3.11457784810738    1.41066316126795    9.88471764548655
H         3.51578541614760    0.69856052947438    9.16532592061621
H         2.88803154674956    0.87430714883922   10.80161218704688
H         3.87346344935979    2.16143641120491   10.10011862809371
Cl        4.52632543938005   -0.88980782169025    7.21808391627481
O         9.62039632268311   -0.77584484294705    3.36799384259524
O         9.55784546665625    1.47074694531696    2.85587928374368
N         4.81414339069878   -0.97598030199179    4.16699577766347
N         3.63872843788161   -2.88503255999773    4.61673410441867
H         3.56593622661667   -2.44204900594404    5.54118953776549
N         4.83536969370931   -2.77137315114947    2.63096509107445
H         4.42246187164187   -3.68332049655857    2.48996549740199
C         4.43121724803447   -2.15984209162416    3.77627357415717
C         5.97852259348286   -0.33511993307853    3.76283228098253
C         7.19745084196991   -1.03880417477626    3.76226433986195
H         7.23492284166485   -2.08417423985343    4.01857495755285
C         8.32629670086547   -0.33069508020189    3.44402894613917
C         8.28564284818608    1.02907794150655    3.13083667281963
C         7.10228237902157    1.72611251624461    3.12235594381798
H         7.07561632543407    2.77273292309675    2.86931728850139
C         5.94596924597759    1.02414855338334    3.44715596103667
H         4.98330131518197    1.52189845086752    3.41460450121889
C        10.39683353335596    0.34995655921216    3.02046565626241
H        11.13064545743114    0.55165889831262    3.81837229978502
H        10.93399237734072    0.14962305250276    2.07933049236446
C         2.39107651230118   -3.52506796841307    4.22256585330606
H         2.56037016230881   -4.10153021179581    3.30415889409174
C         1.32669359730250   -2.45511890517468    3.96993154768092
H         1.56348011095718   -1.88068955791466    3.07564765414076
H         0.34435910328950   -2.90327983233980    3.84518985940760
H         1.28926997454272   -1.76262486184799    4.82127153728417
C         1.97702264605990   -4.47541264373839    5.33951314802549
H         1.78286946521049   -3.91396119257679    6.24981164687909
H         1.07431937761258   -5.01279497610818    5.06260655209224
H         2.76775565653421   -5.19462977876330    5.53723792500718
C         5.11681511826911   -2.06718465844098    1.38544319723628
H         5.85654200586966   -1.28963393141907    1.59548122193459
C         5.71081095658593   -3.06913477117539    0.40323668731420
H         4.98502087320338   -3.84275821124389    0.15817270047565
H         5.99572587064530   -2.56354970132722   -0.51470189817901
H         6.59371402867147   -3.53828294211001    0.82992002977019
C         3.85071740528437   -1.41128298188883    0.83388709721175
H         3.44852242506149   -0.69967278431577    1.55321447110386
H         4.07752334998268   -0.87449472611610   -0.08269030615275
H         3.09249413672720   -2.16251175949232    0.61773375155666

