92
CSD_code = FICVAR | q = 0 | S = 0 | Stoichiometry = C43H40N4O2P2Ru | MND = 6
Ru       11.38676744285267   13.64114599722133    3.42655567355784
N        10.35695076433844   10.58500642515630    5.47053358009532
N        11.34835529346158   13.83037567873025    1.45327775252727
N        11.04302126951192   11.64691721066761    3.47942274277917
N         9.43991638308389   13.73392124952624    3.15252622404311
O        11.04524852283759   12.77612311903945    5.35457866057782
O        10.90916408551431   10.70834411483854    1.43211810310998
P        11.58941182955798   15.88657825479526    3.76554164654313
P        13.58082276248704   13.11077403103455    3.85139386088983
C        10.80231529492300   11.63181165530878    4.80809991833234
C        10.75490117960979   10.60206754501689    2.65941266124556
C        10.29277450877542    9.42313451699411    3.35839274648846
C        10.13601362872620    9.49634791936875    4.71045920118003
H         9.78680737038547    8.63439767555950    5.27001479631945
C        12.38306668290168   13.97545606058036    0.62258637078427
H        13.33955947594376   14.17506056001417    1.09087826654501
C        12.28129937987691   13.87034411748856   -0.74726245610189
H        13.16064911086769   13.98026049538447   -1.36179869580441
C        11.03828654831960   13.59990087325582   -1.30902325471868
H        10.92480983666566   13.48356653929960   -2.37521266920093
C         9.95225935128595   13.48492885834885   -0.46571257466265
H         8.97324212008795   13.28056770280179   -0.86643096925099
C        10.12531429215118   13.61032046634972    0.91102768420166
C         9.03837011264715   13.55994088372811    1.87688457439183
C         7.69039623139121   13.38596058217399    1.56749690522821
H         7.38259805125552   13.23466363186739    0.54597943704947
C         6.75620218630615   13.38782299468784    2.58453805651091
H         5.70947535049745   13.24178293773385    2.36652280289685
C         7.18909423309177   13.57365221325669    3.89274078494436
H         6.49274381026571   13.57538913743731    4.71565599544487
C         8.53818942252857   13.74375325126591    4.12885184173890
H         8.92694513312630   13.87308600156350    5.13288143959596
C        10.00160280499356    8.19196711561538    2.55753836052904
H         9.70244688699226    7.37230236610803    3.20794351676544
H        10.88383861621118    7.89787097610734    1.98858727959959
H         9.20489930041053    8.38895812022813    1.83923494217353
C        11.58954211720091   16.57430762399059    5.45105515578127
C        11.60266387565840   15.68450642701099    6.52055748539161
H        11.58561532811522   14.61912052897736    6.32391633925570
C        11.61598830996995   16.16477228385591    7.81952167816091
H        11.62408631550092   15.47176066984584    8.64784317100620
C        11.61409655956682   17.52943964668920    8.05485206521159
H        11.62610637469472   17.90488767791203    9.06765020027126
C        11.58748218935898   18.41834196990139    6.99038947566804
H        11.57499969043787   19.48275128434063    7.17597428773766
C        11.57392507689058   17.94645395399609    5.69144394928998
H        11.53885308865086   18.64095718377944    4.86346047746812
C        10.09859273354907   16.64891982300436    3.04196212366262
C         8.97645447504720   16.87794282026645    3.83421950461645
H         9.05012296753705   16.76382668306021    4.90721038107572
C         7.77578903424681   17.24753144866086    3.25629634078115
H         6.91175134971603   17.42413902039047    3.88019721155280
C         7.67643214103284   17.38011612814640    1.88138216463416
H         6.73573907849274   17.65888457789406    1.43046986926135
C         8.78672834224217   17.14998634201311    1.08496961223581
H         8.71265547764481   17.24990602313296    0.01163234875858
C         9.98891839683829   16.78123742411157    1.65885119440605
H        10.84838661647539   16.59106479775485    1.02930019092349
C        12.91962621029431   16.89714102563594    2.95006887376956
H        13.01457678532792   16.53222982973709    1.92263718962665
H        12.56009314156949   17.93075546192153    2.90874717091713
C        14.28845388652846   16.86754134400314    3.62817426491484
H        14.18492108358516   17.14852227235615    4.67950875623315
H        14.90334813023808   17.63362376015199    3.14588098098481
C        14.65842088310440   12.36213206485789    2.58231192752816
C        14.04957458641154   11.60237866566164    1.58500884842625
H        12.97055061417328   11.50548062982871    1.55620615959536
C        14.81803320876507   10.96007330316535    0.63067686320666
H        14.33260207021837   10.36982950757779   -0.13218016279576
C        16.19813141680004   11.07286981617432    0.65805229005838
H        16.79924455977110   10.57411695372178   -0.08833181002559
C        16.80839507772296   11.82270027203894    1.65026033714797
H        17.88552828115290   11.90633279369196    1.67916593956546
C        16.04559502288623   12.46078465249342    2.61204030065159
H        16.53618600484582   13.03172580041467    3.38579192990791
C        14.59663314508668   14.48578198436712    4.56226813612722
H        13.96731296227143   14.95795705302336    5.32324140240373
H        15.46329617174696   14.05344988890064    5.07093014465786
C        15.02967161451643   15.53258467508259    3.52641460389236
H        14.90964172587678   15.13404039584901    2.51485556725060
H        16.09484543398674   15.73467069990852    3.66245642589954
C        13.75087471171192   12.16806172340045    6.49507674093963
H        13.76518707540650   13.20484665779090    6.79870237911388
C        13.72335991630787   11.83316130664609    5.14470365944817
C        13.65868479190525   10.49249096818465    4.77583137710470
H        13.61242217127715   10.22255447975508    3.72935281894152
C        13.63188848191818    9.50377853042363    5.74150907234377
H        13.56647658583819    8.46760375756971    5.44349878335592
C        13.66531956471188    9.84248021685944    7.08286141146933
H        13.62880213089075    9.07046723735817    7.83723576069345
C        13.72782214369660   11.17439969626616    7.45561306124887
H        13.74009159697327   11.44197695802391    8.50253836174728

