85
CSD_code = FICVOD | q = 0 | S = 0 | Stoichiometry = C40H30N4O10Zr | MND = 6
Zr       31.75777666071201    6.80733953444182    9.49048688872488
C        29.81182042640974    4.52110891594866    9.27714915553644
H        30.32651330700642    4.40946567455832    8.31878322851655
C        28.69476144022148    3.79800472548482    9.57652102390080
H        28.30719828829682    3.10133036633323    8.85111157157411
C        28.04277617977117    3.95328748927793   10.82936605574226
C        28.63656941443474    4.90404424753741   11.70335411706011
H        28.18785115783820    5.07994654957856   12.66961503941714
C        29.75558704865642    5.59382472834284   11.33915892587469
H        30.22288081314699    6.32932077769193   12.00113476097866
C        26.88555630596495    3.24031953036611   11.22997743692274
H        26.52211676726016    3.48154194744282   12.21963598489034
C        26.21601585167337    2.30896830519420   10.49666795631139
H        26.56951619213994    2.06441629312267    9.50404054160134
C        23.32849670141761   -0.02671994262685   10.42814155457760
H        22.85404931317274   -0.74099502523603    9.76685479793350
C        24.45295388165210    0.66704651815360   10.03218812843427
H        24.87702040476633    0.50499583997870    9.05180305746048
C        25.04636114877297    1.58931817383058   10.91107697840965
C        24.42712270206837    1.73410594333282   12.16322039640935
H        24.81629744968726    2.41857967669859   12.90007699521629
C        23.30409428104762    0.98568210700795   12.45120445024764
H        22.80886975413248    1.07916273433317   13.40985399487710
C        29.32165693661042    9.13849654052423    7.62063908139450
C        28.59853325923544   10.10921864608452    8.31143447695006
H        28.67182007340700   10.17904163392839    9.38575963251125
C        27.78262233123401   10.98570036865572    7.60864396707216
C        27.68515244040709   10.90487531109935    6.22145472484954
H        27.05610509205634   11.58407110754842    5.67089708945367
C        28.41022547479617    9.93455169741351    5.53073160768920
C        29.22361340553780    9.05248086595884    6.22602188346207
H        29.79489902844573    8.29189493378829    5.71143929605026
C        30.18436009873517    8.21361437043811    8.34634684584549
C        27.02248987777068   12.00370111143039    8.37228564554363
O        30.82790894574341    7.27506386405968    7.73959094721807
O        30.33843541527335    8.28719438402009    9.61062875311426
O        27.04677220122507   12.11783276739957    9.57188052038559
O        26.28340875703264   12.80872696264042    7.59567355540817
H        25.81049474842992   13.45169010885851    8.14695912901445
O        28.28750262383492    9.89155212649231    4.18306778794967
H        28.84046327936137    9.18903200913348    3.81911770671796
N        30.37880970030955    5.42174707182205   10.13423191002327
N        22.75295043996686    0.11921938640439   11.61314122251233
C        33.70350551471845    4.52098891210103    9.70378127615125
H        33.18835882779107    4.40889950094541   10.66185235807471
C        34.82084859471062    3.79820900830567    9.40470902114040
H        35.20820969409040    3.10136412450223   10.13006670241161
C        35.47333032318058    3.95395895744772    8.15218366129828
C        34.87973556478551    4.90483528798339    7.27819238326518
H        35.32884920490768    5.08109225701543    6.31217924116814
C        33.76041119817418    5.59427013039857    7.64207562019747
H        33.29322937015494    6.32981147881141    6.98007468007218
C        36.63074156955903    3.24120006706847    7.75179264279293
H        36.99439091864259    3.48257031707979    6.76223459241682
C        37.30018207011187    2.30981189663829    8.48513325328677
H        36.94655670568662    2.06524162154734    9.47775795468644
C        40.18810156375956   -0.02552944685519    8.55396520654718
H        40.66211636984603   -0.74038568635177    9.21499815969583
C        39.06352299822625    0.66816487683272    8.94992046821390
H        38.63954411046480    0.50626505630903    9.93040644232174
C        38.46988659085636    1.59012878310490    8.07072806730219
C        39.08891311027189    1.73460074802606    6.81830753027511
H        38.69951139063390    2.41869837261177    6.08130931688463
C        40.21170883732577    0.98592225890766    6.53020963875393
H        40.70659447199491    1.07901583248633    5.57150338642621
C        34.19503828647534    9.13768454138248   11.35990022592100
C        34.91718878679735   10.10915623718404   10.66912340918746
H        34.84265729038439   10.17990570273330    9.59494112836025
C        35.73358471943927   10.98530528611879   11.37175256241368
C        35.83269950317004   10.90326369557933   12.75875386972634
H        36.46219230122086   11.58213751169044   13.30918982127812
C        35.10871236662194    9.93210648096312   13.44945243476193
C        34.29468005736521    9.05049596585008   12.75434002870509
H        33.72411173491815    8.28936851788537   13.26892307860841
C        33.33168833252808    8.21329054419636   10.63437741428320
C        36.49233664351562   12.00437678428528   10.60816350394166
O        32.68818807134023    7.27469713738240   11.24115517523530
O        33.17721862693595    8.28706993788365    9.37015130740104
O        36.46667254923508   12.11954795402892    9.40869108847630
O        37.23183243036060   12.80911928419077   11.38467375978120
H        37.70374562652197   13.45287625985828   10.83344846839075
O        35.23306026867160    9.88790976413077   14.79693090408793
H        34.68080360990118    9.18484727618451   15.16089359601352
N        33.13669356181526    5.42173421739968    8.84668450640566
N        40.76311661354976    0.11977216792282    7.36850329000312

