33
CSD_code = FICZOG | q = 0 | S = 0 | Stoichiometry = C11H12CrN4O5 | MND = 6
Cr        0.24153173131907    2.35777219864826    1.78011635959195
O         0.95873386245147    2.32970350507958    4.70246429405506
O        -1.67076682010938    4.44225806452044    2.75853306894501
O         2.05560066250784    4.74601401309192    1.51028457381435
O        -1.00841289743718    2.97453583056290   -0.89015281443316
O        -2.06312131300190    0.53006200030373    2.42597488691267
N         1.56165863920433    0.94106670925523    1.17106946349600
N         3.28858062731146   -0.73495101078385    0.84679991579819
N         4.81497509321008   -2.39501386543684    1.07374020068209
N         4.44352128093997   -0.98661049449176    2.89949483311958
C         2.41094870877185    0.14977071832647    1.11195261032449
C         4.15391100916948   -1.34209068495803    1.61186419734439
C         0.76646108206890    2.25118978922046    3.56729769127546
C        -0.93876680687104    3.63983982813596    2.36638721096628
C         1.45339878658678    3.76641610603915    1.55125832373263
C        -0.45206434786717    2.64836186460668    0.05979503656768
C        -1.12404566186142    1.12382571450548    2.12894520821084
C         6.17270352441184   -2.72974118488181    1.44042322462236
C         4.39571717882344   -2.89694347676072   -0.21549866402657
C         4.03527280087900    0.30826496001856    3.40095157961830
C         4.60873232333909   -1.98870039215818    3.93397751957492
H         6.81600888527603   -2.63996750869524    0.56099148328566
H         6.54178968353121   -2.05131244811801    2.20403871962831
H         6.23670927748080   -3.75760827882811    1.80610337394464
H         4.64782342184366   -3.95542677074384   -0.27566754307610
H         3.32116610794280   -2.77158658344384   -0.32050836251162
H         4.88837674191212   -2.36457834219306   -1.03397605248857
H         4.15861659735687    1.06678574301326    2.63010678394902
H         4.68006358553033    0.56144369968163    4.24272018889942
H         2.99425879295540    0.31846947014397    3.74212876420797
H         3.77508072460442   -1.92366082042000    4.63946959138604
H         4.61483299702673   -2.98612401962049    3.50493234439529
H         5.53750372069147   -1.82346433361622    4.48488198818408

