51
CSD_code = FIDDOL | q = 0 | S = 0 | Stoichiometry = C19H22CrNO7P | MND = 6
Cr        5.57138364258083    5.07180758046785   12.15188494026379
P         6.01897217869672    3.82629059259278   10.20516356777450
O         7.49868484458694    3.32257900977315    9.79028744906067
O         5.01702407458362    2.57803457474263    9.91739491777501
O         8.08073179849006    4.73959322822001   13.77249126106602
O         3.88695611755276    3.14569399195947   13.72721243760990
O         3.01110427433523    6.05725628623750   10.91935380204599
O         6.84839606836559    7.51743300969691   10.95926165503327
O         4.93064164842343    6.90448733206303   14.42764212744641
N         6.72604134957954    0.84991949027738   11.11812059456513
C         5.44723857923422    1.48130709362899    9.12678723166838
C         5.88453200537644    0.33766224121644   10.05775213057053
C         8.07778657318998    1.13350211565519   10.67670001321922
C         8.35749151817940    2.64090349438277   10.68723960977597
C         5.80991872679177    4.83366824930413    8.69424391244253
C         4.55343065892234    4.90571272437273    8.10532161814630
C         4.33553209613087    5.74653621029921    7.02884532119768
C         5.37001562564236    6.53037946038169    6.54445590697707
C         6.62136026409595    6.47163501411152    7.13665599682354
C         6.84067063972085    5.63159938280968    8.21330029671105
C         6.58754182354824    0.20904973111289   12.43580483287546
C         7.28564821771377    1.08121360641693   13.48636110998251
C         5.10300649239303    0.14293311400439   12.82465340256814
C         7.17553486839712   -1.21220621005785   12.45879179564530
C         7.15082567260646    4.74403692008436   13.09129758396724
C         4.58845819864887    3.77295962999664   13.06877692362694
C         3.98788830791723    5.61521944844887   11.33184284237306
C         6.40835297335752    6.52932761915163   11.34974569456022
C         5.17248907083997    6.18806305881871   13.55887291730931
H         3.75050987083859    4.29676604148209    8.49865359313498
H         3.35829846610860    5.79704861814192    6.57163602760225
H         5.19972998722974    7.19187764219296    5.70801998946179
H         7.42512664393887    7.08856802377587    6.76259271941352
H         7.81218153931338    5.58727096980463    8.68347259777768
H         4.60103231773461    1.16278405122108    8.51199471712046
H         6.26634604746979    1.78591531865921    8.46708991848030
H         4.98688155865971   -0.09344379615999   10.49085435724255
H         6.38243502749876   -0.43444975292467    9.44743112443614
H         8.22091402822776    0.77084128719342    9.65207878792647
H         8.82913439374104    0.64604325187051   11.30354365554170
H         8.23067279763647    3.04091551833312   11.69747573516383
H         9.37708164779424    2.83678703917918   10.34025477812324
H         7.15875049474319    0.63629492122501   14.47003615016182
H         8.35185568843373    1.17989981966685   13.30497889656753
H         6.83517411264402    2.07228574563222   13.49397420174732
H         5.01119338334034    0.08400216121965   13.90570338923062
H         4.59007533567808    1.03838883315940   12.48674046427939
H         4.60962489197957   -0.73303041408896   12.40937152275179
H         6.72039789841417   -1.82434143006070   11.68304449973335
H         6.97945621551693   -1.67628976122330   13.42149316457135
H         8.25166934312230   -1.20253208845235   12.30189781645401

