60
CSD_code = FIDKAG | q = 0 | S = 0 | Stoichiometry = C28H27AuNOPS | MND = 2
Au        3.73884204171023    6.49394534552885   13.71935806453242
S         3.86914505640017    4.46887167557657   14.87046927883037
P         3.60494721511281    8.33651890428284   12.41614513831203
O         3.06419344428686    4.33148233491997   12.44680391378838
N         3.03315255911566    2.29996832104361   13.45754787170462
C         3.29212552733259    3.53354445629686   13.52211925877462
C         3.28052863922360    1.36248964346746   14.44097918678765
C         4.51926522895434    1.24371305738914   15.07029790285148
H         5.29837770533598    1.95486737192103   14.84023214816891
C         4.74127251607807    0.22537185695633   15.97591923261695
H         5.70451564196154    0.14357784785319   16.45999926519826
C         3.74026382174570   -0.68568111388955   16.26906597933591
H         3.91786576109654   -1.47832248720861   16.98163940872403
C         2.51005449630548   -0.57599399313345   15.64121678059069
H         1.72452105353442   -1.28472719344641   15.86446092726982
C         2.28084256501607    0.43271289319527   14.72749489191376
H         1.32457087119077    0.52625157236682   14.23383539423146
C         2.53330834099543    3.73381198876687   11.25780045702740
H         1.78565270351546    2.99216782572441   11.56541589671318
C         3.63937791848096    3.03655502802132   10.47247985777837
H         4.41054820680437    3.75134654235916   10.19105160866494
H         3.22795694497918    2.58621331306419    9.57340749675543
H         4.08336916497374    2.25732497966551   11.08647306906821
C         1.88090034385371    4.85587670764332   10.45892447760506
H         1.11286042416318    5.34685786188777   11.05235760878791
H         1.42774422485343    4.45369932890588    9.55738500459875
H         2.62508280918881    5.59957825035841   10.17923895345415
C         5.34753887404505    9.57957426786778   10.57962420351624
H         4.96232579371386   10.52585755975559   10.93427958930571
C         6.30821966936702    9.54145974920318    9.58519232749463
H         6.67528472580749   10.46363475213052    9.15945345542203
C         6.79985293731238    8.32615599811122    9.13541787368980
H         7.55011827948030    8.30375385300124    8.35928079359822
C         6.33727736592823    7.14038256839299    9.68383866907125
H         6.72757357894413    6.19487614496235    9.33775177758670
C         5.38193401964931    7.17056844879191   10.68256922444950
H         5.02103389182630    6.25583629038758   11.13601512002045
C         3.74947769857514    9.95017255199359   13.22896779482335
C         2.94519109842839   11.04253160390419   12.92295877371678
H         2.17917770167109   10.95582776847346   12.16445466059321
C         3.13212151914286   12.23677506679064   13.59626983917340
H         2.50892921909566   13.08689279271202   13.36057961480367
C         4.11305045207871   12.34461378054653   14.56877365766920
H         4.25227445186221   13.27959694490855   15.09043115018010
C         4.91138520471385   11.25427726089603   14.87876480845187
H         5.67068250982562   11.33751946108120   15.64171535819193
C         4.72739164143675   10.05675347083783   14.21487780192544
H         5.33121804581499    9.18987531405053   14.45317587229700
C         2.04556068545467    8.43964988680575   11.49893369333899
C         0.88108221900531    8.32805158012360   12.25680975077231
H         0.96022362907789    8.22628892994940   13.33229889449387
C        -0.35234671003701    8.34401583512765   11.63599409390541
H        -1.25423524459407    8.26148041394201   12.22398760410556
C        -0.42878024294592    8.45467734162029   10.25543218112501
H        -1.39243074790235    8.45948242039801    9.76860867483816
C         0.72750362731635    8.55169058523359    9.49964147995379
H         0.66540995080827    8.63165559841344    8.42444032045509
C         1.96726985800381    8.54343135902822   10.11537642481174
H         2.86998094067432    8.61572065839669    9.52458135837846
C         4.87861813294031    8.38969742471645   11.12728408415474

