72
CSD_code = FIDPUD | q = 0 | S = 0 | Stoichiometry = C18H47INP2RhSi2 | MND = 6
I         4.13587298595382    2.55760347696247    4.82250294092685
Rh        3.03695429406652    1.87877037737660    2.44993428551787
P         3.11558619405923   -0.33446701733133    2.97760030819620
P         2.76689686193996    4.07513430842024    1.93221050165473
Si        0.22730360759994    0.37242870988608    3.77276273656902
Si        0.07024479113029    3.53642691417220    3.51423114470863
N         0.90568387525243    1.99149968840095    3.64298675632001
C         1.76855035189295   -0.68667240034985    4.18343427844094
C         1.36615366747441    4.80966087909668    2.89483152111526
C         4.59869673175600   -1.00946516992340    3.90078195049751
C         2.70561961344162   -1.46486320624211    1.54139919726017
C         4.12118827626663    5.29559824471926    2.37254726403950
C         2.29536428176773    4.53422243286787    0.18603749768641
C        -1.01019772788839    0.26126115582392    5.21329365115576
C        -0.62928591300140   -0.10203430795938    2.13881784203105
C        -0.46374524668761    4.09190904246778    5.25950711370782
C        -1.46525312823132    3.33735914335849    2.41237270822208
C         5.91269742786003   -0.58906978529233    3.24903039832825
C         4.58642909497382   -2.50545051632264    4.19025184718158
C         3.89019811802233   -1.50783587433893    0.57983104326273
C         2.18317714912141   -2.86941970930240    1.82520144396226
C         5.50705265675158    4.81130220950433    1.95686700506436
C         3.87533748774415    6.72175776478969    1.89219235392676
C         3.36118247050425    4.04516707707804   -0.78814144639882
C         0.94031884125767    3.93893397609098   -0.17531091434643
H         2.36832967185316    1.50281311951745    1.16008899266487
H         4.32138914045196    1.80041080107959    1.68922491847360
H         1.61633329034040    2.09866965606379    4.37243539900988
H         1.55450862820281   -1.75194818448464    4.23235334215765
H         2.15038236639242   -0.38544507722443    5.16331542152354
H         1.81919209515273    5.26930053966461    3.77701333462349
H         0.90652346694903    5.60776883509698    2.31144561274553
H         4.52763902784526   -0.47982512000484    4.86165682786482
H         1.89798282300177   -0.90983050897965    1.04635684642784
H         4.09463685747663    5.29670855507091    3.47092412568763
H         2.22204216749908    5.62721835158528    0.13846062421218
H        -1.87202109681743    0.88845085002814    5.01618938998656
H        -1.36758173513008   -0.75427742244419    5.34038464626806
H        -0.57736894989099    0.58007919875548    6.15557657201290
H        -1.65036524256583    0.26389042961587    2.12546160203535
H        -0.11426707751572    0.31730706711135    1.28012840209710
H        -0.66760283497945   -1.17933956799285    2.01048067356706
H         0.37368527285745    4.13190156798930    5.95055421774978
H        -0.91265854302249    5.07936597274412    5.23289392903666
H        -1.19900922846205    3.41106791116875    5.67477131137543
H        -1.87161790213230    4.30607122909453    2.14053943425141
H        -1.26825675723106    2.78585841747191    1.50127928216547
H        -2.23496357801684    2.80658105247718    2.96206024884848
H         6.73568150108529   -0.73745723380883    3.94634824662843
H         6.11746858882713   -1.16520022489724    2.35026588595583
H         5.88391129520352    0.46580781554794    2.97958484346911
H         3.62772049015278   -2.83168468928595    4.58741229788827
H         4.81794425777948   -3.08002379446071    3.29623177894826
H         5.35094711946999   -2.73060219739107    4.93328376328558
H         4.66786094450723   -2.17245774107625    0.94936118375066
H         3.57465754257023   -1.87060020701722   -0.39772442492344
H         4.30821206096894   -0.50824256786000    0.45841354755862
H         1.28891245363450   -2.85191973406288    2.44393208131679
H         1.91774904926740   -3.33843135360550    0.87737533268933
H         2.92885661978141   -3.49466118883815    2.30576123311976
H         5.62912882610441    3.75446504429473    2.18890008339493
H         5.67787553725004    4.94748261865989    0.89164940773256
H         6.27142481269617    5.36779474258537    2.49685113036564
H         4.58878652577147    7.38872405787366    2.37455713540155
H         4.01829197468840    6.80691507726694    0.81679086024930
H         2.87349706914093    7.06452167123314    2.14382280125116
H         3.54260247643320    2.98198090030111   -0.63344102081834
H         3.03529409515586    4.19611176198529   -1.81690787743741
H         4.29926522726801    4.57602067890653   -0.64937477083245
H         0.14353202934292    4.38245645380166    0.41557948350840
H         0.72267050491821    4.11366449910006   -1.22859826937624
H         0.94795037269980    2.86358052339347   -0.00304331693907

