21
CSD_code = FIDVUK | q = 0 | S = 0 | Stoichiometry = C7H6Cl3NO3W | MND = 6
W         3.85307167969700    2.48400762832794    8.45095272674153
O         4.24956425119712    1.70039366649662    9.86071484708819
Cl        5.55798913872799    1.69272874464492    7.04467853044599
Cl        1.86074286590829    3.54395859983910    9.10312645664281
Cl        4.95384470037116    4.41767102243712    8.69560715527937
N         2.69084203285170    0.96202422681677    7.74227636514343
H         2.64212350645856    0.14812931585150    8.36951674856397
C         1.92880903890572    0.73586697614716    6.64593616990994
C         1.21674355755197   -0.47616663200052    6.50417310663722
H         1.29981707470423   -1.20997632714108    7.29351665788994
C         0.43744944416704   -0.73208894679644    5.40625543933538
H        -0.09296926247785   -1.66963875000760    5.33432622906512
C         0.32137569211881    0.20838757733668    4.37730747201034
H        -0.29414892554611   -0.00451997211611    3.51833480831983
C         0.99508402132058    1.39617896955070    4.47295265821839
H         0.92223067129692    2.13736449704358    3.69335862180788
C         1.80349039704435    1.68928630257596    5.59025629890633
C         2.49212735001467    2.94622911026597    5.64910062069304
O         3.22986122078688    3.30610253876200    6.59490917460866
O         2.33142595694074    3.77295010090979    4.63002385553640
H         2.83952558796026    4.59071135105587    4.77237605715624

