46
CSD_code = FIDVOG | q = 0 | S = 0 | Stoichiometry = C13H26Cl2N4Ni | MND = 6
Ni        3.36155946161098   10.38551792709577    6.05972840092026
Cl        1.67441965671599    8.94692157260687    6.27283820880738
Cl        5.07961500844456   11.83931264540297    5.95997567782181
N         3.19354810438129   10.11976736464658    3.75194009866855
N         2.10088057250091   11.82445072453725    6.14820946527479
H         1.21330423559195   11.31858925307109    6.05066565568253
N         3.48999391179315   10.58286073868203    8.33748291349719
H         4.28619070669913   11.18356923323416    8.55253345539368
N         4.64832329057307    8.97425220201087    6.03968907941439
H         5.50386734317755    9.53273071986167    6.14098298812948
C         3.17244883819681   11.46976831319662    3.17827083017514
H         3.12461004390425   11.41931188354725    2.07939921748764
H         4.09837719409136   11.97591622213126    3.45783593974780
C         1.99563058990936   12.31472369138070    3.68780956812305
H         1.90006358608460   13.17638055164462    3.02382361400660
H         1.06383831658972   11.74964009883000    3.62427455432466
C         2.15927600604380   12.85715706102482    5.10961060629032
H         3.12139966604734   13.36956615271897    5.19318348256865
H         1.36144864839975   13.59431478762014    5.29184147379929
C         2.13505073973147   12.41108461230468    7.49527168710344
H         1.23281599493993   13.01232239873765    7.67482140570120
H         3.00787977381559   13.06893744140380    7.55114027358944
C         2.25856156910103   11.32507354820111    8.57211787520712
H         2.22179015762758   11.79441711422550    9.56831378454407
H         1.42059431799956   10.62698056050611    8.48611101008130
C         3.63325358239032    9.32277066769834    9.04780275040515
H         2.72590955844090    8.73676346126442    8.88080590089336
H         3.75503296127279    9.47083980773353   10.13413120273447
C         4.84186620374907    8.55065997669973    8.50612243875032
H         5.04939441789091    7.71990542436539    9.18294113871625
H         5.71507803343785    9.20878115234792    8.50355341162695
C         4.64262377864140    7.96551807578006    7.10371163860022
H         5.45331564252916    7.24528347203295    6.91260640390366
H         3.69068386549010    7.42893557231744    7.06497893357505
C         4.66645775774901    8.37827873032674    4.70046990584369
H         3.85001091518358    7.65376341205284    4.64152935977452
H         5.61141202910112    7.84248427460711    4.52935930278868
C         4.49909867035439    9.45865834213370    3.62177946028971
H         5.28467248718450   10.20614278257364    3.75747428122480
H         4.62117665601073    9.00314396415751    2.62820315921054
C         2.15357782835428    9.28643732833227    3.13205492798019
H         2.13248003042391    8.31519383897448    3.63103980518328
H         1.17706612814443    9.74414020291307    3.30412268488900
C         2.34001824765006    9.08768994468545    1.70370521305457
C         2.52792892345213    8.94401825189608    0.52973348046105
H         2.66615454857879    8.80212449848366   -0.50059666626586

