54
CSD_code = FIDWAT | q = 1 | S = 0 | Stoichiometry = C15H32ClN4NiO(1+) | MND = 6
Ni        2.55452305987850    4.71017732034988    9.22151960278618
Cl        3.73008562231514    5.44490634937089   11.08560993344478
O         1.26014783247755    3.71710221314348    7.50748574190618
H         0.38888604170358    3.45362104602872    7.81529571613303
H         1.13910019851503    4.24882785113943    6.71734933227756
N         3.64905797076277    5.88348597041350    7.61664940474961
N         1.42444294588935    6.23077016051180    9.43738987274589
H         1.83008782733632    6.58306616890687   10.31511997703126
N         1.29740403926625    3.49924644638965   10.59251486307202
H         1.75287440885262    3.83272232681616   11.44849053099118
N         3.62154779227876    3.15256675538073    9.09170967859673
H         3.26854974463577    2.77137995831924    8.20683938576816
C         5.32061866894034    7.61735568537630    2.09369963456446
H         5.96480303414948    8.09549850399339    1.41815736237924
C         4.57143664327978    7.06648186622298    2.84554291928477
C         3.68542236588911    6.40945136030708    3.78743971974842
H         3.52346072656936    5.37797056340324    3.46007295363717
H         2.72081460815865    6.92668167279619    3.78178799660534
C         4.28941798817422    6.42555625100959    5.19707264075701
H         4.44379455477063    7.46365849550391    5.49714015469662
H         5.26397792773635    5.93751202583833    5.15806978639674
C         3.36043137333530    5.70371403414624    6.18210450964769
H         2.34258596275021    6.06243443733494    6.00688669302296
H         3.37983326407097    4.63512026197836    5.95493433095043
C         3.21587197137572    7.22035505934744    8.07299978994974
H         3.43472050936862    7.99612957095595    7.33113272478012
H         3.75735997210670    7.46536111092819    8.98926310985312
C         1.71818040791541    7.22141365671738    8.38976166495370
H         1.41616178962233    8.22592632140460    8.71109023676851
H         1.13431267312322    6.96887622835543    7.49941829522953
C        -0.02041523237461    6.06339658900823    9.64675355026978
H        -0.45981408432594    5.61769020718831    8.74823777247579
H        -0.47122702326764    7.05700726980948    9.77303136616966
C        -0.39160076401934    5.22795255353765   10.87685914981084
H        -1.45393519040210    5.37640117411829   11.07209130150745
H         0.16018176690650    5.60281446959412   11.74127388966183
C        -0.13142103135496    3.72411589808704   10.73849119182527
H        -0.53603846429352    3.21243199345422   11.62330244012667
H        -0.65302667067617    3.32677366495418    9.86176761986856
C         1.75633360992938    2.13197837112914   10.36002011329420
H         1.26952554736975    1.73827699604566    9.46242987835163
H         1.52440676951366    1.46121368575023   11.19870716573169
C         3.27287947946036    2.19478155878606   10.15681667072360
H         3.74472633679855    2.54114125716780   11.08048143782442
H         3.66392724967202    1.19847205816753    9.91972624423285
C         5.07444736006038    3.30450677198016    8.96349103269278
H         5.53311410595312    2.31447931094843    8.84057885225097
H         5.45039547240055    3.74014756907353    9.89259381176940
C         5.49115949622739    4.18279584102914    7.78364138086328
H         6.58021119814874    4.15540646036193    7.73323490771463
H         5.11239785628659    3.75892749316916    6.85267849708029
C         5.07022832768967    5.64864801326006    7.93032078039397
H         5.23453662259585    5.93852106356261    8.97062807153508
H         5.71149533645137    6.27715005742734    7.30369431109609

