97
CSD_code = FIDWIZ | q = 0 | S = 0 | Stoichiometry = C46H44HgN2O2Se2 | MND = 4
Hg       -0.47558564898062    0.85582853701795    1.99860677148588
Se       -2.90981886258971    1.32877442534847    1.72884793315898
Se        1.93493397808878    0.31851390826719    1.64516224762257
O        -1.54515876017020    4.73252815035010    3.85959923811887
O         0.76872463900207   -2.53741230778399    4.56056521397503
N        -0.38316662442932    3.03577491723917    3.00760898328924
N        -0.46847505090578   -1.05756406717617    3.44989316946824
C        -3.16446304773383    1.64436730694614    3.60802382166690
C        -4.20623386780465    1.00203699448154    4.22695327695948
H        -4.84861274040456    0.35445260388063    3.64690982472824
C        -4.46150963696468    1.16805629122533    5.60009025816555
C        -5.52650680444992    0.49613473887813    6.23851179665799
H        -6.16781805509264   -0.13592669115412    5.64182316514958
C        -5.73766795173328    0.63993101883772    7.58066255640865
H        -6.55635339275751    0.12591556389950    8.06238882206450
C        -4.88362478990163    1.44764192471550    8.34759085096591
H        -5.05174323948160    1.53691259529146    9.41084533146286
C        -3.84421951946152    2.11382465259791    7.75925655735619
H        -3.18004708945877    2.72325196270047    8.35346028749802
C        -3.61732507062388    2.01176186116752    6.37023678524638
C        -2.58199991022265    2.72115133021603    5.70987425142075
C        -1.70542885467017    3.65438275524698    6.44300412988436
C        -0.32847206481786    3.45317420537103    6.45109748589306
H         0.08832356151512    2.58383629930491    5.95790642884835
C         0.51164067660506    4.35453384910355    7.08683283735628
C         1.99456454811343    4.14188499629173    7.10800812404445
H         2.52350380344122    5.07572882345739    6.92607963724448
H         2.29700201955700    3.41175711862362    6.36160492468233
H         2.30577616434104    3.76837199427819    8.08353314254707
C        -0.04386669328955    5.46179204198820    7.71669832076709
H         0.60908236784582    6.16942901826715    8.20886676345035
C        -1.41378990643454    5.67939467926109    7.72300075773073
C        -1.99714077581935    6.89374862023600    8.37944037036990
H        -1.32305631847248    7.29056248758246    9.13476901511901
H        -2.95280816328166    6.66090264165260    8.84401599370207
H        -2.16891986456532    7.67128498069622    7.63451006079581
C        -2.23933194602438    4.76572628111939    7.08257638614436
H        -3.30672205955040    4.93152917959199    7.05449728517093
C        -2.36991343195788    2.54872374559156    4.35436964525289
C        -1.38073666106499    3.41770941218036    3.70625190131094
C        -0.47118281650540    5.37375824671575    3.18194700472028
H         0.12744698495944    5.91251816640571    3.92291577690249
H        -0.88841455863653    6.08174430040842    2.46232246241000
C         0.31728921904405    4.22032791212884    2.50820746427014
C         1.77888898119384    4.17808417066974    2.94083511283258
H         1.85464329798101    4.09684157057390    4.02307455884272
H         2.28977528059487    5.07976609200305    2.61238478424501
H         2.26138196584977    3.31307473814462    2.49180844175800
C         0.20622498967557    4.25505708230640    0.98303439936953
H         0.68321782735612    3.36716788039758    0.56005447739442
H         0.70493117407840    5.13794340660754    0.59029209248199
H        -0.83961612217036    4.26939673803372    0.67777337278575
C         2.33681184259634    0.41106771007332    3.52265766589918
C         3.41759461693670    1.16269753999245    3.90722671749050
H         4.00867215885755    1.66423841111342    3.15382401811868
C         3.77891430026055    1.29365888998480    5.26018562029146
C         4.88524013703359    2.07672967962674    5.65498859285898
H         5.47295701965169    2.56089430126959    4.88880895521225
C         5.20251220687796    2.22026483802539    6.97611749885685
H         6.05262646701783    2.81737343363972    7.27138692609632
C         4.41793431911339    1.60208894822585    7.96218068156420
H         4.67101048536322    1.73877633100879    9.00336352255270
C         3.33980114869496    0.83666689850747    7.61288241058164
H         2.72881058788174    0.37366691414340    8.37317979956535
C         3.00343958785977    0.64270344794208    6.25636605843609
C         1.92587682096132   -0.18239847290920    5.84564202436950
C         1.11350355030940   -0.93073059724535    6.82389983342214
C        -0.26220973789860   -0.72509358166562    6.88465994039497
H        -0.71931185881081    0.02478126959240    6.25099425345382
C        -1.04857055152753   -1.47125626905335    7.74801104480036
C        -2.53083804941470   -1.26250724115601    7.81872336860829
H        -3.05832496337108   -2.21242766862176    7.74026292152356
H        -2.87109958095774   -0.60306103388139    7.02449999243286
H        -2.80307589952310   -0.81035556516030    8.77231908064335
C        -0.44105474461398   -2.42688537365606    8.55484137695092
H        -1.05420635926547   -3.01498843898383    9.22381868381245
C         0.92760465929234   -2.64376087659299    8.51383375767627
C         1.57120653080514   -3.69422362812874    9.36717632546354
H         0.89280579599385   -4.03511111236924   10.14530786605197
H         2.47731425053183   -3.31031362556316    9.83204786927319
H         1.85006329454770   -4.55165658062778    8.75449422714676
C         1.69977720428488   -1.88628184097735    7.64277343790485
H         2.76413913003135   -2.06090073672493    7.57720912212876
C         1.60972418204100   -0.30475863871652    4.50489063116306
C         0.58216471757632   -1.28607252534809    4.13756851929934
C        -0.35178529171428   -3.29997670941699    4.12837873761201
H        -0.89016918106404   -3.64862012572150    5.01526907824100
H         0.01126757256616   -4.15815071217032    3.55865330407650
C        -1.19329360391262   -2.31717988372071    3.27309976584030
C        -1.18486497006166   -2.68779483558768    1.78897987667947
H        -1.69837165593139   -3.63390165776272    1.63515634586596
H        -0.16165128543873   -2.77261867851573    1.42411430881095
H        -1.69929530359668   -1.91325744725548    1.21446294917763
C        -2.62231047879428   -2.16850282079735    3.78359976495143
H        -3.14856672357896   -3.11582534245639    3.69649070725944
H        -3.13962028439775   -1.41920748500435    3.18885123069861
H        -2.62527324203181   -1.84999825801822    4.82377688552932

