25
CSD_code = FIFBUR | q = 0 | S = 0 | Stoichiometry = C10H8FeO6 | MND = 7
Fe       -0.50952465490858    1.72927878265049    3.25418347476716
O         1.61543692002496    1.82414655941200    5.27069366274944
O        -2.67128168155162    0.61833273824250    4.84816726151235
O        -1.64189051125089    4.33528563737352    3.87142553589919
O         2.25505943710497   -0.05389697531866    1.54062536399496
O         2.26919333826017    4.31712240660975    1.76443556463908
O         0.09977153541047    4.69171787864285    1.31316384295712
C         0.79753192184060    1.76115362480162    4.48128762948121
C        -1.83648366901392    1.04004923204554    4.19167031641220
C        -1.20737580265641    3.32574640227157    3.57570515260365
C         1.43284046344392   -0.50034286294962    2.30898812702770
C         0.00299117962730   -0.20472709945911    2.35186526064644
C        -0.71126137734406    0.59888268790653    1.38791004360865
C        -0.29736994124023    1.89679078192353    1.08611999282170
C         0.84432351054601    2.46473592897011    1.74365947432035
C         1.00153939207649    3.92821925445000    1.57664378117318
C         2.51960138883669    5.70961156336267    1.64438677863778
H         1.73086177592313   -1.25135133690101    3.06787154245591
H        -0.55546300589876   -1.06700789701145    2.71626828165584
H        -1.61761609032639    0.20686969002598    0.93654416019325
H        -0.89285401762225    2.52357824251975    0.42906365853980
H         1.79410911509539    1.93917882483010    1.72820994485661
H         1.93739650714731    6.26416941524109    2.38436546468536
H         2.24378555113577    6.06030390547783    0.64708941141213
H         3.58497871534013    5.84285261488227    1.81575627294913

