74
CSD_code = FIFCUV | q = 1 | S = 0 | Stoichiometry = C36H34N2PRu(1+) | MND = 8
Ru        6.89492646583557    9.41331281964495    7.12036438154438
P         7.16850815593894   10.44700725163034    5.08526601336848
N         8.20235357647346   10.68994948382580    7.92237999829537
N         5.57249638237259   11.02175900518658    7.79543677655116
C         9.52147925261037   10.63659547819516    7.71616904602114
H         9.86856629003333    9.85751817651888    7.04962546185535
C        10.40832899682429   11.52159777386298    8.29531180982490
H        11.46309631231788   11.43199850002867    8.09502126288972
C         9.91777457804870   12.52086252316096    9.12346400679446
H        10.57957600170173   13.23677522252038    9.58237692640868
C         8.55065895118538   12.57418766264110    9.34967848676574
H         8.12358400590332   13.32703025943550    9.99301605017741
C         7.72575725034828   11.64309039856365    8.74307768275970
C         6.23806698440747   11.59540452926547    8.97319724394018
H         6.04171820969266   10.93173230906301    9.82652877695626
H         5.84488261633947   12.58924214091323    9.22176189538838
C         4.16214771736623   10.69280895317876    8.06738033929793
H         3.76321934471590   10.18685369288499    7.18390827479224
H         4.11283206017579   10.01147902075707    8.91983836993723
C         3.35297724890792   11.93838597721226    8.33654328475323
C         2.86773790064232   12.22516153192265    9.60474936940268
H         3.04400107306806   11.53520199521979   10.41755518303022
C         2.14563848088214   13.38497010953528    9.83128436841435
H         1.76717834595393   13.59579581711876   10.81949040764254
C         1.90960673066834   14.26957571212636    8.79309459047585
H         1.34408366840185   15.17135451748129    8.96916943814006
C         2.39443440303988   13.99149062629040    7.52540804045914
H         2.20776189247649   14.67427220766308    6.71070698096122
C         3.11348727433929   12.83203331330030    7.29800487989627
H         3.47563340590597   12.61052415917860    6.30256294742718
C         5.55361786532961    7.62324170619869    7.26509729549926
H         4.49012157414709    7.52115771775242    7.09421931437064
C         6.57318770709500    7.33457470016856    6.33419160065193
H         6.43034716510920    7.00627109637443    5.31189257115505
C         7.82895609145772    7.36916400949574    7.02003178276583
H         8.76758622568066    7.00975554081172    6.62376483833765
C         7.56071002307919    7.63742651447532    8.38565918910651
H         8.28883389925833    7.62402955103252    9.18571079195562
C         6.17279813206412    7.82856635587008    8.53779274860095
H         5.65201873322784    7.91483234593762    9.48180680407767
C         8.32900895150034   11.85883820298114    5.05740482334909
C         9.54815594546637   11.82699986970102    4.39095980492177
H         9.80872848165779   10.97454288348614    3.78119965087072
C        10.42572262085408   12.89350693573118    4.49509586673042
H        11.36669889432772   12.86274586851194    3.96744070843188
C        10.10101053753016   13.99466373301032    5.26806411421683
H        10.78799728667022   14.82275446669998    5.34860283658578
C         8.88466614850778   14.03693391984737    5.93217020688218
H         8.62028264839179   14.89855806805546    6.52672653116440
C         8.00718752780485   12.97574601270473    5.82989574231600
H         7.05054358074620   13.02002247497478    6.33859325672602
C         7.75026165421910    9.40211271474265    3.71540681437393
C         8.87254961723110    8.60794892187613    3.94536740797528
H         9.34922526348896    8.64127477501979    4.91667007288689
C         9.36871027043334    7.79258738697254    2.94677126179391
H        10.23995667230211    7.18168708572006    3.12973595686693
C         8.74276143173964    7.75849809439001    1.70980282456732
H         9.12481194614070    7.11808924749882    0.92980045051273
C         7.62708486711010    8.54480219202502    1.47666631037265
H         7.14017345890935    8.51964870991177    0.51370725998287
C         7.12805411946934    9.36742871214589    2.47268984138478
H         6.25782363117574    9.97798917190460    2.28170468128180
C         5.63294904137995   11.16277339057767    4.40696282329146
C         5.55020757863202   12.40177340398337    3.78092086963044
H         6.43438264961020   13.01201024422024    3.66584253318484
C         4.33030118319683   12.84690280261951    3.29843574668303
H         4.26832018348509   13.81001164536369    2.81500965834843
C         3.19604736750268   12.06153695948292    3.42731961952049
H         2.24912951689230   12.41597901390417    3.05037655781606
C         3.27697593718771   10.81751588027612    4.03606941854800
H         2.39518511785162   10.20128554859546    4.12661092997749
C         4.49006869377943   10.37277532359597    4.52698884564370
H         4.57899524089061    9.39925068068698    4.99825562267386
H         5.54543094107218   11.74651495196978    7.06909171990065

