46
CSD_code = FIFDUU | q = 0 | S = 0 | Stoichiometry = C15H26Br2NNiP | MND = 4
Ni        1.63390250543517    5.16749995866303    4.66281643110384
P         2.82616589896091    6.42145870952745    3.38407563635128
Br        1.76017322454330    6.50791042341020    6.44001904669448
Br        1.10367097781252    3.28997893363004    5.67505281581666
N        -0.21382433350157    5.38374805849277    3.29874258989641
C         2.23070571582664    6.55047915574327    1.66159969982513
C         3.12893398829730    6.55325192626753    0.59772882900177
H         4.18983402544096    6.49237939154573    0.78717328268474
C         2.68358892499512    6.63289767848751   -0.70847895712714
H         3.39519855159297    6.64038173346805   -1.52057167130770
C         1.32609445121936    6.69913256903500   -0.96813853310367
H         0.96782456510333    6.75747985175876   -1.98468560443566
C         0.42587575705423    6.68433531767104    0.08167985033624
H        -0.63379312017926    6.73069859009691   -0.12623881219968
C         0.85727415796071    6.61201785522726    1.40052821760939
C        -0.16942136290738    6.62198576787663    2.50305246674189
H         0.04079182027918    7.44815517467028    3.19149278791266
H        -1.16017279928596    6.79950236622541    2.05345914071294
C        -0.48293403672129    4.24007830855482    2.43054095850788
H        -1.43856523947897    4.35737371194097    1.90226277424327
H        -0.52378750147614    3.33082604258947    3.02920027235497
H         0.31321795818776    4.13783722385660    1.69268939981038
C        -1.30010688840903    5.51489326483386    4.27738448260863
H        -2.25468041120370    5.73042141122946    3.77824414675492
H        -1.07769361705546    6.32448571292548    4.97622465367664
H        -1.40540773373197    4.58823620554391    4.83979796799334
C         3.44919900486966    8.13280821178644    3.77755860199500
H         3.85060692563047    8.06162106796884    4.79641267299601
C         2.26619001278775    9.09845777451900    3.80180642645607
H         2.60376952231025   10.08971692561929    4.09697501279743
H         1.52289641368006    8.77301459597053    4.52776897194842
H         1.80777733767537    9.17417227118529    2.81556704831748
C         4.53502765127784    8.63653234138545    2.83442007225551
H         4.16049193164108    8.71587865807956    1.81522255407899
H         5.41290419798117    7.99471158916095    2.84258288029232
H         4.84866648071243    9.62883522912566    3.15414595237391
C         4.34481788736399    5.34591711548565    3.26894820828400
H         5.10985476189270    5.80757256881863    2.63582867851531
C         3.92321941252419    3.99917106305612    2.68338951469450
H         4.76349912998584    3.30660488327325    2.67453718030514
H         3.55010565727935    4.10174617193876    1.66441192392856
H         3.13281985022550    3.55129626356135    3.29455832498201
C         4.89300511906535    5.15925417745046    4.68360748304420
H         4.12723827974385    4.71647442375811    5.33332686236364
H         5.20536212691493    6.10609235758435    5.12167533759294
H         5.74828281769328    4.48557696701417    4.67450442030344

