73
CSD_code = FIFHEI | q = 0 | S = 0 | Stoichiometry = C36H30Cl2N2O2Pd | MND = 4
Pd       -1.76589341670544    0.00073381832584    7.09868468650855
Cl       -2.20114346074559    0.56096151936424    9.27291339850230
N        -2.81617787758994   -1.61329838003635    7.28312162692480
O        -6.50242472920547   -4.85200743768940    7.51117294822950
C        -5.12861820319029   -5.21717049192138    7.54403613245034
C        -4.31322527074010   -3.94538174102047    7.43586734360487
C        -4.92600165046590   -2.70757972615536    7.28104064241110
H        -5.99920953217849   -2.64616149266561    7.21406312650599
C        -4.14453523099253   -1.56974026324194    7.21087009195211
H        -4.59045416818055   -0.58237995988601    7.09343039025426
C        -2.21561412764099   -2.79341655272456    7.43598692013230
H        -1.12720156991396   -2.77959471466968    7.48481423147909
C        -2.92290151833325   -3.97536725238469    7.52045165438074
H        -2.39745273243931   -4.90839096752394    7.64584532279232
C        -4.86165874740806   -6.18026715888395    6.39300459396274
C        -5.38091480915278   -7.46897989962511    6.48058135305883
H        -5.89944088297433   -7.77943436132136    7.37842845539317
C        -5.22326406617406   -8.36366099590368    5.43872357579102
H        -5.62575311347130   -9.36214803236380    5.52443765125940
C        -4.55184298445615   -7.97856095135990    4.29030154294455
H        -4.42665072938392   -8.67674993011480    3.47634458579540
C        -4.04822082968783   -6.69394955637189    4.18995498932755
H        -3.53171666865052   -6.38238725037127    3.29461135076322
C        -4.20533499511155   -5.79567812631070    5.23253710634345
H        -3.81598650399593   -4.79399672916276    5.13299607046847
C        -4.76551735177574   -5.83410256493675    8.89512396447322
C        -3.75552023802886   -6.77886386460261    9.02216503562603
H        -3.23066204655937   -7.13402001626019    8.14684767181352
C        -3.42929773552383   -7.28237166376622   10.26912586975600
H        -2.64496047307690   -8.01944992991153   10.35816791631962
C        -4.10278679827154   -6.84578011136954   11.39715864224047
H        -3.84417654843637   -7.24019009987219   12.36841048402370
C        -5.10642154626444   -5.90045559056480   11.27484594096212
H        -5.63342384037368   -5.55152636192856   12.15024032379785
C        -5.43334517596989   -5.39426369811864   10.03005034701829
H        -6.21113989263460   -4.65201016560958    9.92747988737251
H        -7.02765116888184   -5.65961595825430    7.52447345363244
Cl       -1.32783086323647   -0.56158162523844    4.92577355324240
N        -0.71379291608347    1.61354968294774    6.91545453972131
O         2.97305636573623    4.85180300670204    6.68772987621959
C         1.59927082908338    5.21705306781878    6.65488545411670
C         0.78378253096572    3.94532993396541    6.76304007406892
C         1.39627891386072    2.70741422635122    6.91779223223783
H         2.46947803556250    2.64576447865399    6.98478925567458
C         0.61450772779692    1.56969523075346    6.98782423141881
H         1.06033510542159    0.58218791302321    7.10495835491754
C        -1.31409649507345    2.79387778724550    6.76293131525305
H        -2.40247844365996    2.78018995738000    6.71408965358777
C        -0.60659784808826    3.97563241108308    6.67867623385167
H        -1.13192902013080    4.90875204992644    6.55357440660193
C         1.33232997725497    6.18011421296768    7.80595515721760
C         1.85159893806302    7.46882149091440    7.71844771950742
H         2.37010957644569    7.77933479194110    6.82061396781520
C         1.69399908638528    8.36343348072219    8.76037991967481
H         2.09652758851880    9.36191074588958    8.67474004569137
C         1.02259359504595    7.97828756995848    9.90879270098799
H         0.89743827209141    8.67643980843878   10.72278738338767
C         0.51891470342926    6.69369691416889   10.00905383846066
H         0.00239439027572    6.38208529629033   10.90437229537190
C         0.67599641064308    5.79548600065779    8.96640462204276
H         0.28661453275675    4.79380916690977    9.06588534556258
C         1.23618390530777    5.83406374440618    5.30380979699573
C         0.22623868780393    6.77887490385144    5.17676576453233
H        -0.29870801353990    7.13397401206053    6.05205433851374
C        -0.09980579493913    7.28257724305151    3.92983088049645
H        -0.88408787520975    8.01971917172591    3.84080953666683
C         0.57379840020087    6.84611966498846    2.80181979610387
H         0.31535267126948    7.24067990744241    1.83058543946933
C         1.57733456552857    5.90068386418206    2.92412685727680
H         2.10441637593515    5.55181832097253    2.04875357551786
C         1.90407544184967    5.39429865799475    4.16888787854464
H         2.68180779924651    4.65197779708489    4.27142985954956
H         3.49833347805881    5.65938177195786    6.67446477142080

