73
CSD_code = FIFHIM | q = 0 | S = 0 | Stoichiometry = C36H30Cl2N2O2Pd | MND = 4
Pd        0.00204841413853   -0.00787423956577   -0.01167996500291
Cl       -0.78402782097011   -1.84384985847715   -1.12591812583215
N        -1.27804960247946    1.12193649908998   -0.91938687709053
O        -5.32723186296784    3.58989739840974   -2.19814603244604
C        -4.05628187319409    3.79288523430855   -2.80261301720109
C        -3.07412811384377    2.85677150531984   -2.12968341363979
C        -3.46271645056125    2.04515908183048   -1.07051531282668
C        -2.53787802437218    1.19364303645177   -0.49613135343806
C        -0.89386082760974    1.88917134748067   -1.93935968133589
C        -1.75613969354213    2.76172239455824   -2.57133287342398
C        -3.67289363566553    5.25837228650355   -2.63093377207047
C        -2.72497353394266    5.68178004347432   -1.71035418782060
C        -2.46382873228534    7.03255670294028   -1.54969920630885
C        -3.15103629779302    7.97259082902718   -2.29664724643557
C        -4.11027491461195    7.55784789214928   -3.20532885510989
C        -4.37210354454818    6.21033147564601   -3.36774375205658
C        -4.08784154902445    3.38502274193164   -4.27577812802980
C        -4.92482809250369    2.34692829515278   -4.66218979538341
C        -4.95514267504248    1.92536808816636   -5.97897642431676
C        -4.14242623195235    2.53305100259291   -6.92032614050339
C        -3.30033230006051    3.56332249724340   -6.53821436608415
C        -3.26928772841601    3.98837399124133   -5.22164596939138
H         0.14718284133897    1.79771570312787   -2.24788087040628
H        -5.11690552930400    5.89295286265725   -4.08606825945339
H        -1.40464551863725    3.36416703231472   -3.39342111094419
H        -2.80710202431207    0.54146056988536    0.33446835467547
H        -4.47492132549239    2.08981937704276   -0.70517784043657
H        -5.55179560292427    1.87410844468121   -3.92071064553333
H        -4.65662308919391    8.28390143030778   -3.78898765231608
H        -2.94448695574129    9.02464438890468   -2.16942331310917
H        -2.18741987819426    4.96280684254159   -1.11121618844034
H        -5.94520922240224    4.22279823798549   -2.57999044241496
H        -2.61596679619121    4.80044745709794   -4.93611741053893
H        -1.72071637207411    7.34745921729735   -0.83269862686228
H        -2.66316312495559    4.04078971746423   -7.26789714094054
H        -5.61118403809529    1.11798375182520   -6.26801605026881
H        -4.16318403052140    2.20407929956632   -7.94849124579925
Cl        0.78814048530656    1.82835970158369    1.10262717281612
N         1.28135777417125   -1.13685756721848    0.89814797324061
O         5.33029416212189   -3.59100270635650    2.20427508777519
C         4.05739656036032   -3.79345915942124    2.80477028359862
C         3.07589798436899   -2.86312971262299    2.12294228178941
C         3.46732331740282   -2.05468072425455    1.06241345200586
C         2.54315479936390   -1.20735677165702    0.48070817844659
C         0.89423120420213   -1.90155009996283    1.91897215263331
C         1.75558059934983   -2.76981345765404    2.55800657447488
C         3.67805662609099   -5.26076481277321    2.63994945668416
C         2.73508483332791   -5.69170680778251    1.71779702199168
C         2.47769951427828   -7.04398998767964    1.56390450929059
C         3.16382003302682   -7.97807711983600    2.31926727777026
C         4.11818662509299   -7.55584285863833    3.22962228392040
C         4.37624974518070   -6.20681079929976    3.38529077920708
C         4.08205254762250   -3.37728879778064    4.27577573764842
C         4.91557255436138   -2.33559468680427    4.65996085084889
C         4.93969043288795   -1.90680927158473    5.97454487589046
C         4.12416394163068   -2.51079956752118    6.91583462697003
C         3.28544847439562   -3.54461346374107    6.53586958500403
C         3.26061701237147   -3.97689648096648    5.22153149556961
H        -0.14847719796048   -1.81145695176988    2.22239370014031
H         5.11721336688159   -5.88352698744714    4.10494367471452
H         1.40170246176564   -3.37008423308357    3.38065802375335
H         2.81465745834364   -0.55756042187428   -0.35095168864277
H         4.48129557649871   -2.09825938756700    0.70187382368591
H         5.54476630808071   -1.86568382884405    3.91852298951480
H         4.66366501607909   -8.27721903393737    3.81985123055982
H         2.96021255333369   -9.03132146327934    2.19729002665697
H         2.19850338114341   -4.97743277579235    1.11220110318384
H         5.94817154009721   -4.22027684011474    2.59223199770723
H         2.60991629219336   -4.79168802294853    4.93777810604875
H         1.73840857274097   -7.36480353538475    0.84557669028863
H         2.64609017552558   -4.01922223656951    7.26550030044642
H         5.59311733736018   -1.09670426984621    6.26187901401510
H         4.14011368899203   -2.17621743776538    7.94227228888103

