58
CSD_code = FIFKOX | q = 0 | S = 0 | Stoichiometry = C25H22BBr2F2N5Zn | MND = 4
Br       -1.62654607791820   11.47255786049844    2.54124161483956
Br       -0.85965083857941   10.14244686021898   -1.65540791670069
Zn       -0.74853627934040   10.31336229725337    0.66684511543662
F         2.52032699547551    4.21278392960520    6.96529828631650
F         4.20594916865140    5.50577760915550    6.18421164811681
N        -0.76040657166910    8.38291421559994    1.48484239920753
N         1.32809104191234   10.10366926511746    1.25852002314560
N        -1.09046348465564    6.64219070442995    2.81511356656153
N         2.59215161832340    4.68612245253481    4.61526520548777
N         2.00347424836036    6.44810832454187    6.26864547881137
C        -1.63834765022199    7.46047684264902    1.84344432293557
C        -2.94620370721506    7.22859577641607    1.39633190163206
H        -3.35828122708292    7.87204890206407    0.63614004603821
C        -3.64664067300389    6.19319964282059    1.94745794569538
H        -4.65546245139626    5.98854412448001    1.62828759183784
C        -3.05867978915465    5.38116167464163    2.94251532625419
H        -3.62026648554915    4.56898955436817    3.37319820338576
C        -1.78745585119345    5.61612101153904    3.36457919630403
H        -1.28259868876000    5.03422244585554    4.12014074425265
C         0.17637166740411    7.08950804645061    3.06239381072144
C         0.36244810487086    8.17506197488261    2.22312336767752
C         1.51462380573098    9.04022526880430    2.04970517930257
C         2.74458455881377    8.78680603294926    2.65511434709341
H         2.87087248621889    7.92009602077715    3.28273063959095
C         3.79120046554708    9.66241680279705    2.43153710757009
H         4.75153809853733    9.48870746108038    2.89227334864218
C         3.58715499820579   10.75880879796568    1.60691540696182
H         4.37693379560983   11.46344147365540    1.40434540157701
C         2.33534175233122   10.93472391465040    1.04224490482089
H         2.12812911527395   11.77285408169595    0.39066813367995
C         1.05142470443642    6.45813993589264    4.05337015824483
C         1.75312963521909    5.30093801014075    3.70603577583030
C         1.80827529827354    4.56270288084313    2.48803556380157
C         1.08971630338422    4.83231430341749    1.21386311185054
H         0.01921647167547    4.65045504499939    1.31849901698193
H         1.46775455300239    4.17098151345557    0.43830929331963
H         1.22951392387626    5.86223399321284    0.88806924452897
C         2.68145731228683    3.51768360850143    2.71647512698633
H         2.96384113179455    2.75701272221383    2.01544408153750
C         3.15075325421597    3.61861868441456    4.03455703271127
C         4.10663300929019    2.73981042466147    4.73828703171700
H         4.97865069104045    3.31666446930442    5.04475290941611
H         4.41561739742931    1.91797721933812    4.09929957049604
H         3.65086939688911    2.35159677568608    5.64810613660886
C         1.16536636974863    7.01449654020624    5.32485694738460
C         0.53652862929903    8.15233827436187    5.91895596646802
C        -0.45426189101763    9.07717444936540    5.31535198153677
H        -0.00722040504879    9.67900066071861    4.52556042946928
H        -0.83264714424091    9.75874681272078    6.07189818669211
H        -1.29964588576775    8.54082327904565    4.88769050945538
C         1.03024831287245    8.22643177639799    7.20478143216066
H         0.77554351421369    8.96077025607788    7.94322747969803
C         1.93191721151337    7.16665671092434    7.39358204121565
C         2.70885277688912    6.82933470219519    8.60277161996153
H         2.44820951934245    5.82657791290627    8.93977019340815
H         2.51713843018419    7.54618995197938    9.39545405610727
H         3.77194281022580    6.81408713828859    8.36530104640419
B         2.86562252344406    5.18819857923205    6.04857170880054

