66
CSD_code = FIFNUD | q = 0 | S = 0 | Stoichiometry = C24H31CoN5O4P | MND = 6
Co        2.21752568953477    4.47510209695366    3.38594732865523
N         2.89243505856012    2.98953982759402    4.35635201566438
N         1.13624829679760    4.64774081402664    4.94201378057168
N         1.55484134596835    5.95492327638836    2.47961978516448
N         3.31490735720758    4.30749052298096    1.89696450169684
O         3.87460688024728    2.17696371552249    3.93138662283149
O         0.23082259693076    5.61784306540305    5.14426565109986
O         0.57067550216809    6.67578392418686    2.92735678849384
O         4.17964726916199    3.34465769928090    1.76283427741589
C         2.36363909862033    2.80032909350804    5.52232136200203
C         1.35338932264380    3.77096873099996    5.86775621685083
C         2.19104411311198    6.23830211326360    1.38487046271639
C         3.21190677034013    5.28538820933308    1.04881116909372
C         2.73995143127504    1.68280355275146    6.43835459255434
C         0.65938029189524    3.76425327579362    7.18873510069436
C         1.84694402604010    7.40479578893452    0.52188323678031
C         4.02810642720319    5.37363738304906   -0.19739697668252
C         0.76794851288410    3.38058807708284    2.44574463606237
C         0.66392591933192    3.76328965230045    1.07830934785894
C         0.94026425397331    1.86025055980626    2.51010275903270
N         0.56061341266690    4.03090270068035   -0.03469322394698
P         3.91569608294756    5.72581780131300    4.30435220105954
C         5.60035633501005    5.15931029337362    3.86307637674459
C         4.02552037764661    5.72061712762863    6.12961071523852
C         4.54442997317246    4.58582876660954    6.75145155731251
C         4.56951078313862    4.48936880506321    8.13032922839148
C         4.06731388810313    5.51833718699688    8.90980461655746
C         3.55397281686706    6.65008731126594    8.29966365479912
C         3.52943262754161    6.75151117594889    6.91999828631665
C         3.91946290505073    7.49179416855172    3.85962609865502
C         2.77634029057444    8.24054885962010    4.14188515529523
C         2.69590426933632    9.56685895309603    3.76297090673561
C         3.74915199933957   10.16154614855402    3.08809812195362
C         4.88155570224072    9.42172064570579    2.79383220072782
C         4.96852693117313    8.09331497174864    3.17231079994774
H         4.09424137671729    2.55524859361679    2.93322287109998
H         0.23703885260502    6.16549423240354    4.20174072789494
H         1.91262034229696    0.97922907439007    6.52788693854946
H         2.97332410021634    2.06216602370023    7.43077854296437
H         3.60106445427283    1.15684765305183    6.03334495520144
H         1.36233207954931    4.02616354536689    7.97972819337017
H         0.25024729428155    2.77933544338062    7.40332832826648
H        -0.14378796463001    4.49678269358131    7.17590115965966
H         1.42714207467160    7.05180633724489   -0.41881776538553
H         2.73138761089567    8.00337036560453    0.31083194233639
H         1.10692822051312    8.01496588071941    1.03423092798914
H         4.53769886981763    6.33397349428861   -0.25968812680077
H         3.37931037151516    5.26815147699544   -1.06521480535789
H         4.75808260253575    4.56718244843300   -0.20169280120146
H        -0.17434809479180    3.66508375840556    2.93383122689309
H         0.87258313543395    1.49749071327400    3.53344423209567
H         1.89322207361654    1.55323061719457    2.08344824310922
H         0.14832310863207    1.38080624496747    1.93019714801602
H         5.69549861581181    4.10012503149402    4.09565158421746
H         6.34756691864018    5.72536291005996    4.41921824345082
H         5.75137483124818    5.27133449563012    2.79069119332492
H         4.93943147108792    3.77340359224328    6.16034424634222
H         4.98274859777563    3.60742076293210    8.59853889970355
H         4.08013497000234    5.43979074627262    9.98674731760297
H         3.16760793626981    7.46013369617966    8.90030704188050
H         3.13491838767673    7.64531449120043    6.46282960403198
H         1.93142414252847    7.77811628760160    4.63091264452690
H         1.80249706050939   10.13161532709990    3.98270218784230
H         3.68406638121909   11.19549628653142    2.78371771650337
H         5.70254281415252    9.87843506606898    2.26016156251617
H         5.85727880624042    7.53470641474310    2.92332646502579

