34
CSD_code = FIFPEP | q = 0 | S = 0 | Stoichiometry = C13H16ClNO2Zr | MND = 13
Zr        0.41141974434807    1.23411184743676    3.14947483591445
Cl        0.18092172723129    2.74298858940251    1.27781498388763
C         2.53563072410076   -0.13239261436118    3.02457577597734
C         2.37609942056482    0.48899750571591    1.76741571693676
C         1.23462299343021   -0.07073145086093    1.14902586812083
C         0.67423263911565   -1.01411908213522    2.03332741779985
C         1.47661907178100   -1.05209431586730    3.19743731160984
C        -1.43886392900198    1.95857556773694    4.76025507479442
C        -1.86048300464499    2.22216091759989    3.44057634937698
C        -2.01344835952517    0.98283047213132    2.77344671295648
C        -1.70530408366537   -0.04496378761081    3.69663114060008
C        -1.35849649717842    0.55753903913266    4.92048343809683
O         1.45126235008419    2.85327725739916    3.75691857969117
O         1.30068885886084    1.16410407147489    5.08774814479462
N         1.77014040650977    2.36316609069564    4.92510906044888
C         2.46405117040458    2.99879285880931    5.79855961277214
C         2.76608500874620    2.34796481367653    7.10209520045640
C         2.94770112836291    4.37146326629493    5.49091281669524
H         3.37724514258055   -0.00367971587251    3.69697339280555
H         3.06028883700430    1.19493814388534    1.30916427270941
H         0.90408936316847    0.13184313433094    0.13825643923747
H        -0.12064137306920   -1.70768358600846    1.78598414449455
H         1.37178588186369   -1.74345882893689    4.02458125993759
H        -1.31608772563349    2.69627745863675    5.54673692755547
H        -2.10676740985347    3.19514233964390    3.03165242018519
H        -2.41983827551073    0.85215606032563    1.77626969441130
H        -1.87463137409611   -1.10432691259340    3.54800709164474
H        -1.14162718835257    0.03842534149614    5.84456220607617
H         3.84299820586834    2.29921300396613    7.25996373746079
H         2.35289214467444    1.34271914819514    7.12008178459910
H         2.33802667179231    2.92602796245107    7.92084971309964
H         4.03544846993082    4.40921719580535    5.54617421783928
H         2.55484051315832    5.08239453219428    6.21750810552370
H         2.62919874694988    4.66612367580975    4.49372655149005

