94
CSD_code = FIFQOB | q = 0 | S = 0 | Stoichiometry = C31H51N7Si4Zr | MND = 5
Zr        0.53861994407467    0.72658241727775    4.04069036490249
Si        2.22398922705221    2.37299493259184    6.18308178142627
Si       -2.47206479752481   -0.40968101555016    3.66634404278109
Si        1.38387080435806    4.32317304562626    1.19640320296492
Si        1.47069593668445   -2.26993409950287    5.34231623337593
N         0.75413172851338    1.56156845296761    5.91835883881323
N        -1.42077483485885    0.50785741373670    4.64074859377168
N         0.31495096955246    2.65818175438511    3.14310908644729
N         0.90429671419384    2.75239081825935    1.89156483654312
N         1.60730383422195    1.75891087113775    1.43028500972091
N         1.57513690730528    0.70036605071013    2.18913895632683
N         1.48556113258916   -1.21559250117173    3.97932430431497
C        -0.48626437968860    1.69740387406849    6.52185880310332
C        -0.67820469082186    2.34988200030377    7.73465791777915
H         0.18380467036515    2.78178039588614    8.22391472115571
C        -1.93487061131676    2.44910394535773    8.31322157649881
H        -2.05087899783499    2.96215690424796    9.25675149469997
C        -3.02850072609428    1.88972726042329    7.68113915919059
H        -4.01064148267776    1.95910464380170    8.12563290363026
C        -2.86786665124166    1.23581507533115    6.46900797696082
H        -3.71948767093293    0.80058446105502    5.96670782396525
C        -1.62189791039007    1.12778693541447    5.86125063171578
C        -0.97036804081771    3.17277969071421    3.19588454805032
C        -1.43364962019612    3.73867559132586    4.39392327040049
H        -0.76456482246347    3.79094035690462    5.24055302256085
C        -2.71803212783889    4.22792284504174    4.48323076466464
H        -3.06175514457192    4.64180780276964    5.41992270465873
C        -3.57884277860551    4.21243877883539    3.38812161831379
C        -3.10660473462959    3.69340206342228    2.19031465142218
H        -3.75161865474480    3.68088764680524    1.32220019813256
C        -1.82767129804433    3.17974814801817    2.08701961187528
H        -1.48547774479457    2.76975677172399    1.14421529116098
C        -4.97657764269829    4.73937843034342    3.51579328261225
H        -4.96895702996525    5.75686033659870    3.90418841997822
H        -5.54739222912745    4.12389100762519    4.21064314295660
H        -5.48454393769448    4.73659738259526    2.55446055264403
C         2.26883544752408   -0.44178274850284    1.84896700676280
C         2.98351301263855   -0.61560286419963    0.66622833879020
H         2.99968789359318    0.19246508120038   -0.05072441761305
C         3.64884474896206   -1.80132350497332    0.43045028482318
H         4.20315811514915   -1.94221154159784   -0.48478716215401
C         3.59677686956449   -2.81217434228966    1.38282958209200
H         4.11521026896115   -3.74284024887293    1.20149174385511
C         2.89468949611122   -2.65113526957496    2.55957859842134
H         2.86840177691529   -3.45092578150834    3.28134549756597
C         2.20341711709087   -1.46389713859307    2.84436267565673
C         2.18717639354460    4.28067393258425    5.89516592729619
H         1.59755678449572    4.78268807095863    6.65606372622567
H         1.73773193276341    4.50548438610146    4.92973215400193
H         3.18075804849749    4.71827442926998    5.91487975519170
C         3.13148246046655    2.04029918812046    7.84509359034829
H         2.65875288552594    2.56533266528887    8.66834843997900
H         4.16604640426652    2.36586872342003    7.80500521467529
H         3.12662503299707    0.98228972834624    8.09108795576017
C         3.29084059339559    1.61841809850194    4.76014427767467
H         3.10073695649901    0.54191960987590    4.67006757021263
H         4.35519197114197    1.74828351487922    4.93905687385196
H         3.06517643309709    2.10867942781852    3.80872000395913
C        -2.86285561511075   -2.17234131612321    4.33499629636405
H        -3.36607822759755   -2.12059755788233    5.29586025568272
H        -1.95466470590639   -2.75326267133189    4.47199989986167
H        -3.51014302888527   -2.72214056131789    3.65891731397157
C        -1.35534716055834   -0.62712287606872    2.10737830729098
H        -1.02389933312864    0.34559684267034    1.72706218598754
H        -1.88361635566886   -1.12517910841191    1.29889900752915
H        -0.48295846426862   -1.24157887798854    2.35113732189895
C        -4.14549018021791    0.36725414827939    3.12454982529371
H        -4.93316042316409    0.12986270915784    3.83246880801751
H        -4.46228935239849   -0.00220340634472    2.15406422841173
H        -4.07435339778460    1.44869050440864    3.06294154857578
C         0.32567611011551    5.71630623340328    1.93780609320322
H        -0.70412496302884    5.67501525042933    1.59769105237941
H         0.73034916201964    6.68152058130854    1.64953443496672
H         0.30660580030898    5.67477343539220    3.02282205793538
C         3.21753193358329    4.55348595910700    1.67420054762046
H         3.34308482788879    4.61845326973489    2.75248224544615
H         3.62927292598282    5.45908053405654    1.24082273935204
H         3.81662302018259    3.71782615923834    1.32269274417456
C         1.14654387074270    4.12109496697209   -0.68019893495765
H         0.09583783306932    4.08473395198037   -0.95320749978242
H         1.61268081808353    3.20755485550314   -1.03563319434261
H         1.59326056025131    4.95242451559002   -1.21459904278332
C         3.21002744842107   -2.41451288082042    6.15802715133985
H         3.54918121566853   -1.44926633735418    6.52635114356160
H         3.95722033080636   -2.77611247421720    5.45798450950961
H         3.19216099415970   -3.09877649094219    7.00023411058361
C         0.82742684548741   -4.04778683588090    4.96356707939484
H         0.34353294580663   -4.09934596700768    3.99186235933288
H         0.10650464659571   -4.37140910243921    5.70773120198402
H         1.63440504909400   -4.77400178546453    4.96248289723155
C         0.30761209658655   -1.48638830818654    6.62880122714905
H         0.72524614810453   -0.56515046481978    7.02859987707056
H         0.15774822170663   -2.16373264583157    7.46394719157775
H        -0.67021554979034   -1.26389815377241    6.20773603242857

