77
CSD_code = FIFQER | q = 0 | S = 0 | Stoichiometry = C24H44N4Si4Zr | MND = 4
Zr       -0.00523126758403    4.81732377659168    3.66922135268702
Si        0.17910974047505    3.67407448964920    0.64633750606275
Si        3.01482368874425    5.96088324009319    3.89642431970364
N         0.08495272116697    3.28261974587567    2.30234322661171
N         1.36125522986538    6.35198080543913    3.76519942245742
C         0.04015338584517    2.05795716896336    2.95513739309751
C         0.08042963341532    0.83746546157983    2.29083111456540
C         0.03719946526658   -0.36502307589589    2.97994307398706
C         0.70846204929330    7.57663492891917    3.72030940274930
C         1.37221543029437    8.79709814601187    3.76886856554774
C         0.68354994836086    9.99958151162192    3.71920383697693
C         0.21821650030463    5.59535036243959    0.78407510428082
C         1.76711020268994    3.10772797985746   -0.28102810103024
C        -1.34021904299842    3.18105747908005   -0.42757328420547
C         4.14617030983075    6.51129557917521    2.44026979918237
C         2.88278478862645    4.03921743748510    3.85488676930023
C         3.87693302957113    6.47010548382067    5.54003485705910
H         3.32212898982583    6.12071050660706    6.40720791545447
H         3.96095321885305    7.54872698522361    5.62377535754077
H         4.87991350584089    6.06084022783191    5.60414988888320
H         0.14729973502582    0.84600632911727    1.21225680330029
H         0.07055255870150   -1.29608609572444    2.43380933279106
H         2.45002985291796    8.78863953621405    3.84668731010061
H         1.22916520593503   10.93069480053099    3.75865150740595
H        -0.69036061577379    5.97098803643704    1.26772262882458
H         0.27926913020276    6.06242807711257   -0.19533315446765
H         1.08865859412224    5.92993687955647    1.35897775560431
H         1.82361446152676    3.54836732343600   -1.27129332424809
H         1.79093357507086    2.02976956997658   -0.40407519042699
H         2.66756078609598    3.39176118020139    0.25794556209704
H        -2.26317727058657    3.59285382253098   -0.02700641150389
H        -1.45962280186531    2.10342555935782   -0.47132266355934
H        -1.23646508495493    3.53751901045683   -1.44717821006202
H         5.15251612611158    6.12113516484616    2.55353472643891
H         3.76425518632783    6.16387576683454    1.48359937295834
H         4.22203720308110    7.59226647818903    2.38439331588909
H         3.86222322007430    3.57242677943275    3.91771371947440
H         2.41904083483855    3.69870786866993    2.92236921811230
H         2.29139167009449    3.66873399209116    4.69928645814565
Si       -0.18963424992014    3.67407737489067    6.69211262270893
Si       -3.02529351273907    5.96088558056868    3.44209051384547
N        -0.09539525787943    3.28262133515734    5.03611115867034
N        -1.37171878567153    6.35198316761857    3.57323401711790
C        -0.05061482225983    2.05795772749153    4.38331885952721
C        -0.09092013998870    0.83746731134460    5.04762701825971
C        -0.04772367123837   -0.36502232820031    4.35851587332332
C        -0.71892510001007    7.57663659475586    3.61814837761493
C        -1.38267912164000    8.79710083441067    3.56962188847798
C        -0.69401410747338    9.99958302987499    3.61932285291199
C        -0.22879328829424    5.59535356062900    6.55438235452870
C        -1.77765171005091    3.10766388465018    7.61940982383191
C         1.32967310958365    3.18115153018880    7.76609700435323
C        -4.15657106098793    6.51136500169333    4.89827441083660
C        -2.89325960292797    4.03922010175977    3.48367796659926
C        -3.88747392205117    6.47003525988617    1.79849588850799
H        -3.33267053507354    6.12064507844552    0.93132296169700
H        -3.97154931758299    7.54864878533129    1.71472988953711
H        -4.89043393567106    6.06071692526943    1.73441172651012
H        -0.15778395569777    0.84600982495183    6.12620192008162
H        -0.08109780726722   -1.29608458353775    4.90465058130278
H        -2.46049310406297    8.78864407699949    3.49179603518242
H        -1.23962928120644   10.93069743827339    3.57989851025047
H         0.67980478878686    5.97100758565410    6.07078913145191
H        -0.28991631577035    6.06244028679887    7.53378221140127
H        -1.09920509480738    5.92991668681675    5.97942103532748
H        -1.83424868058542    3.54831757334465    8.60966368709934
H        -1.80140893503256    2.02970704578328    7.74247805098671
H        -2.67808972892950    3.39162031832856    7.08037520909009
H         2.25262815889145    3.59295343407198    7.36553425163763
H         1.44910577713343    2.10352853517993    7.80989783139150
H         1.22588839612421    3.53765539413569    8.78568161798184
H        -5.16291817684497    6.12118565722344    4.78509495698796
H        -3.77459650157661    6.16401620922536    5.85494728243765
H        -4.23245007000889    7.59233798844665    4.95408601577220
H        -3.87269991155236    3.57242341998230    3.42091113317690
H        -2.42946259429545    3.69872975970088    4.41617647288157
H        -2.30191182605173    3.66872427322122    2.63925257892151

