43
CSD_code = FIFYAX | q = 1 | S = 0 | Stoichiometry = C18H18MnN2O3S(1+) | MND = 6
Mn        7.67482540748130    5.05046577036748   10.10324100901930
S         6.98844407782913    7.14673708664194    8.98372537327910
N         6.02272731643844    5.48017890490825   11.19028173971433
N         6.19533462370693    4.18504944307789    8.81360683219535
H         6.50231964636796    3.26307225641255    8.49510739938930
O         9.83078057018788    4.37781846774472    8.23431461106690
O         9.69317222852630    6.42036419196825   11.73627598528037
O         8.20380586076800    2.59678593937919   11.63164352340629
C         3.63898947907834    5.32504003604042   11.27546197310920
H         2.73450714229398    4.90046315875311   10.86876403163532
C         5.70223421783393    6.43463210511025    7.88881480646001
H         4.76046816760104    6.56977386054700    8.42384169743556
H         5.67518804573502    7.02750655129476    6.97587313550486
C         4.86831378876127    4.98458346140787   10.72730560220594
C         4.96996274497054    3.98150867527644    9.60773032724142
H         5.01116350120368    2.98627310411816   10.06830652291010
H         4.07335500409002    4.01754521370687    8.97627817166897
C         9.52737924633505    7.99959099146984    8.57436112793672
C         8.27259314953621    7.72539078462718    7.80313112585846
H         8.42382125284361    6.96278601522671    7.04048535562163
H         7.86906152269198    8.63482013418738    7.35323833516196
C         8.88218468590042    5.90464613406186   11.12100185454718
C         5.97033936535082    4.96979040541169    7.58574399865237
H         5.12270600660955    4.56250624470671    7.01555239019575
H         6.86694597932508    4.88289470950764    6.96297127724848
C         5.97493376636855    6.32477978577449   12.22366695457611
H         6.92102289408940    6.70659222731550   12.58384853033997
C         8.99191591780465    4.66167217031762    8.95761185472440
C         7.97992545030681    3.53749520626826   11.02222463031767
C        10.72134597070738    7.37389229384962    8.24064822593454
H        10.76279005872796    6.69856771133433    7.39881912396688
C         3.59547762761995    6.20066760682260   12.34672198980967
H         2.65339573196634    6.47762917029859   12.79220862644043
C         4.79232912364018    6.70709988109711   12.83006869523938
H         4.81388743420960    7.38736908097885   13.66523306109003
C         9.49708061569480    8.89040418627191    9.64311991913159
H         8.57027056325116    9.38570036781262    9.89860894985445
C        11.82999491133018    8.51060080370755   10.04001644890491
H        12.72416631479373    8.70658625832203   10.61039169967161
C        10.64329551223646    9.14297614938834   10.37303961215087
H        10.61113184430590    9.83446499844188   11.20046220308942
C        11.86844692986269    7.63260638138081    8.97104660077666
H        12.79246630162134    7.14547207466445    8.70190466723734

