30
CSD_code = FIGDOO | q = 0 | S = 0 | Stoichiometry = C11H15N2ORh | MND = 7
Rh        8.45150856690868    0.80594125875970    9.60668148673350
O         6.87265220038974    2.15253633744753    7.47089834769425
N         6.18575577174338    1.37996938139223   11.48672458276864
N         7.60513743901930    3.00864588486493   11.45845551718875
C         7.31387816754690    1.82019355571899   10.92677000660258
C         5.61816424213471    2.30824399313837   12.45201322715925
C         6.62589933708667    3.46213537710630   12.43367681603247
C         5.51245186166695    0.15393117868386   11.17529721029735
C         8.71985892623478    3.83845736303722   11.10880583557403
C         9.22483343190516   -1.40687189120673    9.61740672868241
C         9.32450918717135   -0.87607482770787   10.90929227701441
C        10.27153270388670    0.20254260454649   10.88158943991806
C        10.74852270789532    0.33436272147547    9.57224145862412
C        10.00653501078508   -0.57570857527613    8.76109518084270
C         7.52122801406164    1.59391420840854    8.25333453719727
H         4.61584422915955    2.61751786223330   12.13652345102078
H         5.53748684391957    1.83319326640716   13.43568960517319
H         7.10335734394474    3.62150586565061   13.40659635134605
H         6.17910782613197    4.40868772713281   12.11104973639534
H         4.50718383784216    0.35351693199855   10.79470644189124
H         5.43426230997721   -0.47951344693997   12.06306996065919
H         6.09456762172774   -0.36355817682751   10.40518742164849
H         9.34489634105712    4.03289680828540   11.98457800346781
H         9.30658451709925    3.31179315195531   10.34828128921554
H         8.37633804659848    4.79339234380823   10.70149749316867
H         8.69604848805520   -2.30043073629959    9.32293232244278
H         8.93288971637763   -1.32302774032889   11.81277592535030
H        10.68554970881326    0.67631142507520   11.76102738475455
H        11.55577306730162    0.96758741968747    9.23721515616726
H        10.23424253355815   -0.80159127222700    7.72788680496895

