93
CSD_code = FIGGOS | q = 0 | S = 0 | Stoichiometry = C37H50Cl2N2ORu | MND = 5
Ru        5.00272223939802   -1.22941651307677    5.51566802945279
Cl        6.92827341499522   -2.24948923484857    4.83381561884297
Cl        3.18614812589714    0.11645673859745    5.23506369064161
O         6.22555251015683    0.69217853478866    5.50313685773154
N         3.35049203549177   -3.28574804285980    4.36598149095938
N         3.04524269224012   -3.34188003574854    6.51286919051286
C         5.37377438677206   -1.01317969441816    7.36199256719376
H         5.09783897422833   -1.68365549334679    8.17652726557374
C         3.77892396073144   -2.79851023115389    5.54067205859699
C         2.22935716948702   -4.20884414505711    4.49956294134501
H         2.48143678964109   -5.18815931831907    4.08384992494336
H         1.35290397100796   -3.82280988504618    3.97209131685945
C         2.01490898237773   -4.24927779284181    6.01351372292130
H         1.02577363298810   -3.88448506778759    6.30536863535863
H         2.15077543557286   -5.24888607897285    6.43953258598366
C         6.07584206571773    0.15244676914958    7.76172338761582
C         6.33110927142435    0.45607459584285    9.10894744337036
H         5.97691907172206   -0.22950248081101    9.86517885629871
C         7.01178456177726    1.60096734601785    9.45984262377830
H         7.20078725958204    1.82174304515899   10.49947513281596
C         7.45594505174619    2.47266253806605    8.47616380390039
H         7.98831778832558    3.37106054943671    8.74982767330155
C         7.22588417177559    2.20609256453673    7.13459900605844
H         7.58068197249688    2.90589616056639    6.39389845183465
C         6.54065017237553    1.05873666155644    6.76896202752661
C         6.79377280751623    1.35141199725148    4.37361640610644
H         6.66565275337584    2.43765208226572    4.49483919307867
C         8.27145402214921    0.99196250864149    4.23205714370272
H         8.83449795461852    1.30024662319423    5.11029256457948
H         8.68949065189666    1.48058001812317    3.35602961352070
H         8.37164879268584   -0.08657032028137    4.12218370654935
C         5.98661124618091    0.87909642257371    3.17043251274860
H         4.94964771771831    1.19690392148784    3.27058848785808
H         6.02445143863186   -0.21328040998999    3.10624423912775
H         6.39330100670836    1.28976451934660    2.25060758743508
C         4.03735514034454   -3.05854191840209    3.13337174687428
C         3.58769892512036   -2.06077546414432    2.25467009823276
C         4.35639071582934   -1.78470311519083    1.12973925903657
H         4.04710945225630   -1.00700725480693    0.44957801149244
C         5.50900336670535   -2.49731176373681    0.86311806897128
H         6.10629882734279   -2.25119712412610   -0.00279790980003
C         5.86852341710483   -3.55957766826014    1.66963749807102
H         6.73103537667394   -4.15251785828320    1.41248525353342
C         5.13791135670231   -3.87023963972737    2.80788784583033
C         2.22259609735246   -1.43041504655825    2.41957633626432
H         1.92273051917589   -1.49781497321646    3.46935456423979
C         1.23852368056345   -2.23249751211600    1.55612292736382
H         1.28838989525950   -3.29735982865957    1.77598801419519
H         1.47524874275594   -2.09936737051348    0.50229650813949
H         0.22104414688651   -1.88727157612766    1.72668336132608
C         2.15398721895727    0.04243908597807    2.02311634115778
H         2.86272249158028    0.62440448546000    2.60279827116941
H         1.15793451850755    0.42418948879923    2.23560581903835
H         2.35223146361756    0.18718433529198    0.96400996832029
C         5.43788620445666   -5.13706709072151    3.57739315429597
H         4.99140907827954   -5.05680284637764    4.57216719507439
C         4.79238222498891   -6.30967530742037    2.82497278666519
H         3.73651682933821   -6.13317417747031    2.62689754456492
H         4.89039257745857   -7.22651248508941    3.40269076296909
H         5.28816811543348   -6.45229848319655    1.86716671697124
C         6.92620528003946   -5.42445941946629    3.76776464651606
H         7.42262356063886   -4.56419509744836    4.20478845681477
H         7.40737754408796   -5.66929339238922    2.82437255047707
H         7.04659792564676   -6.27604591752647    4.43463115432910
C         3.23309910317893   -3.26800966372527    7.91942917452298
C         4.12316620213156   -4.16146464983180    8.52627524557458
C         4.26562937869085   -4.11370408943237    9.90655454214308
H         4.96070160006260   -4.77807594074025   10.39570380478952
C         3.52773332313319   -3.22504099764044   10.66483564648976
H         3.64482126164296   -3.20659711636014   11.73859340064967
C         2.64555048560584   -2.35735171129821   10.05165105272674
H         2.07720467206802   -1.66546926523404   10.65361352467469
C         2.48694612311180   -2.35752126908883    8.67158739516140
C         4.95347307576129   -5.12447512737030    7.71275102417607
H         4.57272832804770   -5.14294290667878    6.68884853980655
C         6.40021667626419   -4.63018055183000    7.65245501909820
H         6.44205351263174   -3.66429496641632    7.15055370779865
H         7.01391539517601   -5.33311235947369    7.09471702845617
H         6.81402639436627   -4.52241001588109    8.65209446130648
C         4.88049421551027   -6.54999706365451    8.26438662145678
H         3.84550530711895   -6.86110209965595    8.39579946171296
H         5.38608794954725   -6.62854318939287    9.22278065756022
H         5.36356277614882   -7.23784368973969    7.57371360855643
C         1.55074628158184   -1.37175690878416    8.01863126844687
H         1.64437020348139   -1.46151897834757    6.93316025646547
C         0.10066790450436   -1.65595881851402    8.41738712821715
H        -0.56945465986250   -0.97929037097611    7.89248555456738
H        -0.03959345984650   -1.51601529490820    9.48664986649580
H        -0.17693097461000   -2.67971264811899    8.17130000099741
C         1.94636510171360    0.06005706889578    8.38297987571210
H         2.98563084499745    0.23360903784458    8.10941494814505
H         1.82656442386259    0.25106116093446    9.44646403460878
H         1.32834975799363    0.76332850954809    7.83084043574537

