153
CSD_code = FIGHAG | q = 0 | S = 0 | Stoichiometry = C48H96N4NiP4 | MND = 4
Ni        2.12299177242836   14.14103713755128   16.95409016930140
N         4.07053615496583   12.89869356647102   14.43331884354721
N         0.72129058740436   11.68452334687859   14.42863290561123
N         2.33114888100474   14.43481108608735   20.36125581315802
N         1.51184283357308   17.46238413079515   18.69452937498124
P         1.69634488387443   14.25906457213805   14.79875680991915
P         2.47437788951502   12.03657357711173   16.52390015096881
P         3.38500218035920   15.53419183349446   18.05002764876528
P         0.55241421663146   14.89626159727631   18.28978909059813
C         2.00353952681358   16.86747195877192   13.93192562544246
H         2.11936837323903   17.02457487683700   15.00693404651488
H         2.99615038526001   16.65527733669147   13.52602610960865
C         1.43778916609143   18.11744454162970   13.26693596969432
H         0.47422315668316   18.36479683466020   13.72030683159012
H         2.10919587633274   18.96491444200867   13.42585884756950
C         1.24532370926848   17.87965589332728   11.77204685537823
H         0.80294760910117   18.76289674641993   11.30544264299204
H         2.21884713688640   17.70818113106133   11.30609782264901
C         0.35320548268477   16.66434335655360   11.53647571876151
H         0.24071840053049   16.48910831067328   10.46355706294145
H        -0.64010927696824   16.85903239763289   11.94880006429914
C         0.94569339663414   15.42289501498743   12.20391922858922
H         1.92166636006532   15.22088411411015   11.75958632898340
H         0.30521836722144   14.56377605713226   11.99893269116273
C         1.09156728322821   15.66424045150639   13.70441301893867
H         0.09952085975909   15.90513544224006   14.11631163597651
C         2.97273322289941   13.48486962237531   13.69127589256814
H         2.46709948088145   12.75099296068091   13.04154460331663
H         3.36084080767831   14.29989636085541   13.08425436632082
C         5.30769632970696   12.74944090890900   13.64242779093669
C         5.75124279304282   14.13490982658891   13.14160462660320
H         5.21019819706364   14.43848633145212   12.24845488646449
H         6.80794174945164   14.12118821628226   12.88572324397284
H         5.59062335551798   14.87517834487156   13.92010562460792
C         5.14270799456986   11.81051218698520   12.43319674885884
H         4.38977004549983   12.18832549223239   11.74497083569489
H         4.84978182835103   10.81341241541640   12.75507367814473
H         6.08608116924990   11.73302916851547   11.89781420542781
C         6.43035401341870   12.19986827543868   14.53760036662388
H         6.40515842898822   12.68642578856504   15.50818042486100
H         7.39749598546522   12.39044352289402   14.07820292050257
H         6.34868467961742   11.12460661458639   14.67748651807539
C         3.64719054768043   11.69474098503470   15.11575136739544
H         4.51415109165387   11.21399972826957   15.56500810438481
H         3.15703931464260   10.98148307656688   14.43007272371621
C         1.89245936292466   10.34120982790157   18.66280438347572
H         1.62096417649313   11.27274750517422   19.16748922367239
H         1.00541870485127    9.97168694595683   18.14446340233397
C         2.34617405425437    9.29553566908845   19.67837362947681
H         1.54052621192872    9.09527937030816   20.38930325541052
H         2.56623650479922    8.36118047684497   19.15414878893624
C         3.59179864371926    9.75984910327890   20.42479584316631
H         3.92601229178316    8.97973443881980   21.11348182735896
H         3.34739847828160   10.64442482275023   21.01303344754832
C         4.70648816823713   10.10029902268923   19.44113206668803
H         5.01069963943157    9.19316408763300   18.91117805325244
H         5.57855149808010   10.47566116160938   19.98273521981556
C         4.23445348935746   11.13954595510131   18.42985151479762
H         3.96201287159959   12.07166764049041   18.93460981517275
H         5.04499735616360   11.36972258879135   17.73392241533497
C         3.00401444239711   10.65727161394644   17.66764547482018
H         3.24730738857816    9.76121249281738   17.08048836343406
C         0.99804541777435   11.18280151621977   15.75666622247839
H         1.24983327773640   10.12247529625449   15.71378872306363
H         0.13600156288487   11.31594436485666   16.43295244648496
C        -0.11037255682907   10.80561923513961   13.58399872051220
C        -0.14336784307084   11.35973476627396   12.14954976483837
H         0.85616736210541   11.65349722753197   11.83848927007883
H        -0.80687363186975   12.21480443648270   12.05259210015455
H        -0.50502128023422   10.59424569905050   11.46759839401180
C         0.53103871871185    9.41092058190435   13.50284119278448
H         0.38533062656440    8.83899613832137   14.41524875653342
H         1.59679800844126    9.49915128027896   13.30523640359521
H         0.07771819604955    8.84651273352553   12.69169386741335
C        -1.55012131718752   10.66700436202691   14.10632436168287
H        -1.55660344883646   10.23697025609238   15.10562729118182
H        -2.12375490221331   10.01696372321346   13.45015527399161
H        -2.04119965664694   11.63715622165789   14.14294302589292
C         0.28034813445152   13.05977371172194   14.50677568203763
H        -0.42656970035663   13.20480771120697   15.34085433351182
H        -0.21608212914135   13.35468771899702   13.58544952952506
C         5.46105419179279   16.58449446739795   16.51595591905605
H         4.95161986787255   17.54898893227219   16.46697627414378
H         5.03907167569926   15.94436538379610   15.73576868722759
C         6.95450079066280   16.79839789269507   16.28229059812402
H         7.11373455845225   17.26840046986661   15.30846424697656
H         7.34113979543382   17.47881990405921   17.04635803965077
C         7.71557521473940   15.47913961766185   16.35131731734344
H         7.38766496904082   14.83302815293355   15.53687623184818
H         8.78635641128688   15.65984167242053   16.22733783160513
C         7.45419895802503   14.78336443957646   17.68294560600581
H         7.85895035501923   15.39339035615576   18.49554106283691
H         7.96729662667928   13.81854222006186   17.70562322615972
C         5.95831733520673   14.58280792511710   17.90146670763574
H         5.53779879498540   13.94392046419339   17.11884050079202
H         5.79157686745629   14.08085032981263   18.85769368977399
C         5.20579696460917   15.90928942291069   17.85962762118831
H         5.53904305394550   16.56187550686740   18.67807065886955
C         3.32833187113492   15.38046210116486   19.90608743671388
H         4.31533661224763   15.02896868287758   20.20081194244319
H         3.16716861145410   16.38884398317103   20.32623841979322
C         2.52560052023570   13.95935692004898   21.74483667977971
C         1.54442971839437   12.80612733322780   22.01678737503579
H         0.54785976291025   13.16591205706759   22.26106343329703
H         1.88660112390389   12.21283811080327   22.86123824996802
H         1.48197614604910   12.16522545249461   21.14217241068163
C         2.30864726757976   15.06056871316816   22.79894320024742
H         2.99978688319865   15.88620682407549   22.64285094282027
H         2.48044105296057   14.65513743507309   23.79325923625984
H         1.29229463815889   15.44585173007335   22.75838535500922
C         3.94960222160565   13.40352533072773   21.90776427770789
H         4.68186650313664   14.19671971209990   22.03838517450560
H         4.22070702943968   12.80980488817586   21.03979977159335
H         4.00083814270948   12.77095569678310   22.79093809996778
C         0.99659175333602   14.93466055916880   20.09912060294812
H         0.87116686365359   15.97276103496328   20.45005152986289
H         0.27077831647845   14.29862323597102   20.60182921396578
C        -2.05747953906778   14.97364484350972   17.24581913768964
H        -2.01165951873567   16.05845733882315   17.13134148677394
H        -1.58460318479430   14.53372207402918   16.36403477907072
C        -3.51938199255984   14.53835027551165   17.31498304801001
H        -4.00410512737278   15.03426004920069   18.16024186869290
H        -4.03956872937115   14.84724675068186   16.40476572243763
C        -3.62781704193674   13.02792140034335   17.49188827413857
H        -3.18517900796714   12.52793030958741   16.62690320327690
H        -4.67778614682529   12.73132893730255   17.54888686240595
C        -2.88988094524479   12.59962973055515   18.75543925034856
H        -2.95348874749818   11.51564969785017   18.87854900113663
H        -3.36407365779765   13.06254811712646   19.62496018738220
C        -1.42863620070121   13.02821826861526   18.68374677819398
H        -0.90511029032808   12.71510081623359   19.59015435750251
H        -0.93988815144922   12.52872822463132   17.84241412560036
C        -1.28212242647148   14.53529747909047   18.48576917959132
H        -1.66793797899327   15.06762621892046   19.36556377144845
C         0.43690335751446   16.75262058861600   18.03579505968887
H         0.42609985545593   16.93575923103954   16.94743986259029
H        -0.51879397442209   17.06152665266189   18.45603901039055
C         1.20400171049848   18.85307329230575   19.08271324359304
C        -0.05109513015329   18.87800435935069   19.97157784785705
H        -0.96557181586584   18.75645693930518   19.39717745289856
H        -0.11765199053698   19.83502506851379   20.48308620902358
H         0.00216293257422   18.09188717517285   20.72092349052100
C         0.97892944140677   19.77233547151151   17.87095030320063
H         0.16100395851838   19.40235418772392   17.25662233619133
H         1.87459044416561   19.82701807976723   17.25632492919389
H         0.73103263729733   20.77655170683930   18.20599579837808
C         2.35559025515662   19.41179345684152   19.93519156483876
H         3.22788633555952   19.66028360831051   19.33694554628181
H         2.64228115198074   18.68898985836874   20.69545575842066
H         2.03495553757664   20.32383177716618   20.43239193264191
C         2.75020451880503   17.29223969718763   17.96735828541352
H         3.52983031149098   17.91531767405579   18.40724972162033
H         2.63920331323342   17.56386439937769   16.90412071957980

