77
CSD_code = FIGLAJ | q = 0 | S = 0 | Stoichiometry = C24H42As2Cl2N2Si4Ti | MND = 5
C        -2.61269676055603    1.89921879076786   15.87677018078443
H        -3.52094743198880    1.64092972716064   15.32720547139562
H        -2.37013924610864    1.09945462179654   16.58095275441483
C        -0.64343793056367    0.27946802515270   14.28539106069010
H        -1.47086098296185   -0.39162436904326   14.52032237348758
H        -0.36849139779156    0.16046797310443   13.23549105048425
C        -0.70429169637407    1.51520438290362   19.53057782086434
H        -0.83700660557639    1.14678941765499   20.55048993346317
H        -1.66257431760423    1.86759198987006   19.14102322799987
C        -0.53633487481581    4.46230694803273   20.12566051856918
H        -1.41740452348673    4.09540750411160   20.65392434124474
H         0.04026912596740    5.10825609499460   20.79067493677981
C        -3.18311263950965    4.85901875809707   15.38307381655057
H        -3.63831458616745    5.75810310992066   15.78406865229722
H        -3.87044095993450    4.42802729072608   14.65872690886593
H        -2.27751433636675    5.15047722577397   14.84991828829192
C        -4.08884553635083    3.49159767326914   18.10261138128107
H        -4.55514247857281    2.51245180591018   18.14570989263213
H        -4.87020786618548    4.21396921436223   17.89931339442444
H        -3.68626880837761    3.71319881192554   19.08500627573264
C         2.22766373474560    1.06716503288838   14.45416107950129
H         1.90091087096153    2.08900589024976   14.22198965839356
H         2.41433254084996    0.55821597928736   13.51080414526660
H         3.17494276872431    1.13245935271386   14.98277273823177
C         1.43223657400930   -1.64934098278791   15.75692821100104
H         2.31407042203472   -1.66862986753102   16.38341809150389
H         1.68387564274457   -2.12123706586247   14.81527575784427
H         0.66620903327849   -2.24332009786674   16.23623991930608
C         1.75920717502002   -0.26241769961323   19.19269124185460
H         2.12336671810084   -1.22762781886567   18.85717001892316
H         1.67144697513625   -0.29452819162403   20.27636219265786
H         2.51193810559796    0.48592906769715   18.94153042851510
C        -1.08382928651582   -1.28802831422139   18.24003646599206
H        -1.85419557894071   -1.27179470194042   19.00350735990291
H        -0.52500620572551   -2.20721780369731   18.36350763359899
H        -1.57221657371624   -1.33023077703217   17.27245563951207
C         0.77416230080610    6.18573833607627   18.07295907677096
H         1.60628411191098    5.47020285109259   18.08345176016288
H         0.97100783901144    6.93225806862066   18.83960082553589
H         0.78364843201761    6.69384142225086   17.11235404920620
C        -2.28817750410915    6.57450326044294   18.47474863297066
H        -2.34713887500855    7.09586873323026   17.52839256415710
H        -2.09244537210689    7.30916235079203   19.24599585313601
H        -3.25287455206070    6.12717119462769   18.67166962814170
C        -1.97829479304549    2.67604527556140   13.03899179538873
C        -3.14120264725702    3.43806591121208   10.63010930418507
H        -3.59715774379787    3.73478567524556    9.69696366656198
C        -3.60051326018630    2.31274780984789   11.29612025136437
H        -4.41082089171637    1.73209910785592   10.87838105967397
C        -3.01893000782221    1.93232728088427   12.49289584014019
H        -3.36580654551518    1.04431259802721   13.01314015878020
C         1.66271376391306    2.62084141135798   21.02188413832760
C         3.04833575323756    2.65540207862613   20.89848465606966
H         3.48096017027156    2.84465490634519   19.91915480837281
C         3.85671882693664    2.44594726708347   22.00382968784239
H         4.93195375898183    2.46838664395081   21.90134342268516
C         3.28564870865512    2.20953990229038   23.24317294068914
H         3.91400379354845    2.04445501853431   24.10608271640428
C         1.90658113010458    2.19294773272006   23.37972482132632
H         1.46263923479515    2.01966337389504   24.34985332241992
C         1.10011107207663    2.40172303882105   22.27470261685343
H         0.01908658762901    2.40363846048574   22.37825103465542
N        -1.15975849966803    3.91544755056500   17.39136779390329
N         0.35209344175767    1.02175572658528   16.86685070915664
Si       -2.72747294713175    3.59422069864327   16.75037650471823
Si        0.87601304412191    0.14601903112960   15.45934360742377
Si        0.09488006760854    0.22195488200158   18.37236628482009
Si       -0.88610650696241    5.28812432471343   18.42351124431903
Cl        0.85689903184805    4.67762565721741   15.25895808759341
Cl        2.71613158369156    2.91894455387281   17.01469558196441
Ti        0.44937026896359    2.98712906337162   16.74350770596885
As       -1.06609062689247    2.15760012870465   14.71808971396671
As        0.56788378483322    2.98864714121669   19.41247600431338
C        -1.51095790167307    3.79311099421428   12.35328053720640
H        -0.68579152579591    4.35958910260473   12.77767190801245
C        -2.09349373208842    4.17543902481124   11.15589769789867
H        -1.73018183675913    5.04654541247845   10.63018512438234

