38
CSD_code = FIGMEO | q = 0 | S = 0 | Stoichiometry = C14H15N2O6V | MND = 6
V        -0.50695080056128   16.26321897410128    9.17195470954572
O        -0.01327484811664   14.87107017707564    8.80013575227118
O        -2.44746817660163   14.98035522100943    7.12109440904625
O         0.22732703544093   17.52107419141258    8.33549187085558
O         0.13167601776082   16.42747789665369   10.72206807609175
O        -2.07675379682980   16.50303387230469    9.39726360777364
O        -1.31308208683360   12.27552030934057    5.08592176828877
N        -0.56468948582082   14.76253558576866    5.85958408339790
H         0.01723376949374   14.11354376696838    5.32166468455813
N        -0.04120441314723   15.91194851275608    6.30006001968737
C        -1.74722930874097   14.31634205730188    6.38348905179999
C        -2.11492729580140   12.96734462691253    5.93408533284836
C        -3.20850212553407   12.20527375319165    6.26094396188341
H        -4.00274192359563   12.49802728728949    6.91516472545371
C        -3.06094963214341   10.98396522250231    5.57060196924289
H        -3.72734014006920   10.14657755809716    5.58835735123025
C        -1.89299729900506   11.08670879487437    4.87572898698953
H        -1.38840281640436   10.40421354066969    4.22010144731435
C         1.14262212195690   16.23855924620396    5.96861729135193
H         1.74408678881432   15.61865668423521    5.28679499730445
C         1.76122728366831   17.42782300977242    6.50608796282039
C         2.89273670560023   17.97693246885861    5.90287774014659
H         3.27579920064086   17.51681004132089    5.00275304257396
C         3.51350951574684   19.09408419688526    6.42319879181913
H         4.38169410183826   19.51007302609455    5.93551133616873
C         3.01560931313830   19.67709068765283    7.58081031953273
H         3.49733214724658   20.55056997125184    7.99515003936096
C         1.90978125490455   19.14431514588875    8.21019747706307
H         1.52136154651518   19.58233366472315    9.12036841234889
C         1.25418408094504   18.01460006939536    7.69599218058490
C         1.06595931749298   15.70961361062568   11.43058812589287
H         0.74932730594789   15.60865096084943   12.47953870863844
H         2.03783787048756   16.22650657661820   11.40464674389741
H         1.18378665337708   14.70733289496924   10.98351014896689
C        -3.41835715345076   16.34385125327729    9.59034588897020
H        -3.85091685103145   15.81464737162153    8.73194233514629
H        -3.90564333233534   17.32401346909485    9.69799593952922
H        -3.59456054499340   15.75270430242217   10.50256070960429

