40
CSD_code = FIGMAK | q = 0 | S = 0 | Stoichiometry = C15H16N3O5V | MND = 6
V         7.36104836767374    1.28759986688799    4.24399304370501
N         2.26763359520631    3.99863250483888    2.54248664124720
N         6.58151444141293    2.14879392745854    1.62690036863153
N         7.62733193888889    1.59572939611055    2.25286759420675
O         6.79644759062533   -0.10357506696006    3.97542241059432
O         5.84716142170057    2.31972669010011    3.75104631215438
O         9.06264627981349    1.12369541034616    4.27312757567913
O         7.09603377815373    1.78016465679381    5.79082822936605
O         8.31164060818490    3.83067178855941    4.10012294413752
H         8.53738707374477    3.76079094523135    5.03718594699718
C         5.66047453556910    2.47699795228438    2.49898457008779
C         4.40319757736713    3.06520285325071    2.00958422001801
C         4.16220079503040    3.25801285055126    0.64970906269731
H         4.91228957603893    2.96054579557791   -0.06609484810953
C         2.96164189661670    3.82612996368883    0.26413637054666
H         2.73367580204017    3.99146524254692   -0.77754094101115
C         2.04941046897848    4.17925036048227    1.25011749555187
H         1.09699271722319    4.62704357701545    0.99806317851664
C         3.41071464154126    3.45487855613629    2.91096118441024
H         3.55778679432370    3.31417365232793    3.97435197358690
C         8.59589921589213    1.13158998037676    1.53902282914804
H         8.51001361063713    1.19029545874630    0.45222452211435
C         9.77076080521935    0.54607425895544    2.10147141637411
C        10.76027496654763   -0.02456350063843    1.28983398090805
H        10.60864700613444   -0.04003518890177    0.22019180737698
C        11.90048147910616   -0.56533860413120    1.83787681256758
H        12.65150394437122   -1.00922387015790    1.20289219658202
C        12.08514935366126   -0.53808090388225    3.21836630615282
H        12.98135461769366   -0.96118617530102    3.64742214183653
C        11.13721083483824    0.02546695411820    4.04336596396664
H        11.27216504060936    0.05054858961953    5.11533651302577
C         9.95911964417805    0.57349619834728    3.51086745542569
C         6.29644308971761    1.67247171275951    6.89104361085963
H         6.18370143700598    0.61730869708800    7.18249898801081
H         6.70946041309953    2.24556244673075    7.73553363912427
H         5.29952569578475    2.07555288702338    6.64381661438070
C         7.48969515864236    4.96702651652124    3.92664965947403
H         7.26454143487806    5.03613346519820    2.86239850877451
H         8.01330705003795    5.87715854778106    4.24101901654214
H         6.55051530181106    4.87621160651708    4.48261468433825

