61
CSD_code = FIGNOY | q = 0 | S = 0 | Stoichiometry = C22H34Cl2P2Pt | MND = 4
Pt        8.88304181182278    8.88380138453500    0.00173172996670
Cl        9.79621777000382   10.47873459056200   -1.43846277695359
P        10.98016281686705    8.83485349361633    0.91791439881290
C        12.10522015551306   10.04716562599589    0.26617651332497
C        13.20114466441991   10.80506234286112   -0.26166008495954
C        13.21818562243542    9.41043377079929   -0.27989499611463
C        11.18453126964825    9.17868321683671    2.75154156905603
C        10.31618500726332   10.42831686937539    2.93053967671622
C        12.63450947100171    9.47120916480344    3.12793313092729
C        10.62421183860802    8.03871485073837    3.59654623963714
C        12.01443808438997    7.37271909799264    0.21856552648627
C        13.38304727452097    7.95723297612555   -0.24077379901101
C        12.15854295773492    6.19210381605051    1.16802439956898
C        11.21252902733566    6.93972042504949   -1.01405906800341
H        10.66461618142363   11.23765381610246    2.28816958259686
H         9.27964741477253   10.19666407504733    2.67422417539831
H        10.34654901143535   10.76939627640800    3.96378859709520
H        13.28308101560036    8.62550016237378    2.90521727527289
H        13.01151294405873   10.34550978412502    2.59991794718910
H        12.69616035350447    9.66836077625458    4.19734355456016
H         9.66734621762693    7.70060186927714    3.20265364196986
H        11.30538564785589    7.19341995937510    3.63214404484132
H        10.46874660452692    8.38733682869325    4.61660049541979
H        13.67971511625269    7.55425209021210   -1.21133946666414
H        14.18061183754290    7.72191042844251    0.47056656324481
H        11.17758571035094    5.87474703462095    1.51707356681363
H        12.62452980039397    5.35383594061463    0.65022045330099
H        12.77605266115576    6.44219749609094    2.02874884968818
H        11.10488153111337    7.77433191181026   -1.71158099270315
H        11.71019572469098    6.12113009595775   -1.53338517240325
H        10.21859058861233    6.59688786507014   -0.71123920999384
Cl        7.96851639549448    7.29023744322904    1.44134920372098
P         6.78688368894129    8.93461199850949   -0.91489946234678
C         5.65531695478441    7.73108561591770   -0.25792239858183
C         6.58293056710880    8.58201896942847   -2.74694570140247
C         5.75892543509909   10.40520623718066   -0.22435370730612
C         4.55526533627421    6.98183069700449    0.27409324069642
C         4.54476107581621    8.37652375137541    0.28294672334742
C         7.44717228862587    7.32853695615452   -2.91881133904877
C         5.13229143854674    8.29278136246927   -3.12338090844969
C         7.14811209730607    9.71561874903582   -3.59731646063440
C         4.38620582840257    9.83014411315822    0.23430134447630
C         5.62430805832046   11.58294287213829   -1.17870174623914
C         6.56028187760420   10.83782463088384    1.00879769600239
H         7.09592887468700    6.52385532052187   -2.27213249856436
H         8.48432938735779    7.55829308730726   -2.66324525855626
H         7.41622474333037    6.98185358827347   -3.95019027884093
H         4.48656197699965    9.14178704298230   -2.90491974433959
H         4.75178376984755    7.42217213717213   -2.59177801466510
H         5.07072699060832    8.09111932490155   -4.19197021997919
H         8.10511418175326   10.05343991957360   -3.20344885622408
H         6.46932523375251   10.56254936104234   -3.63903055202653
H         7.30457622206119    9.36083532583470   -4.61510542060646
H         4.08829830384241   10.24069120883854    1.20130008696004
H         3.59192097103586   10.06434425478341   -0.48104369059254
H         6.60802310364630   11.89201625512411   -1.52747469652459
H         5.16341125338102   12.42655060521997   -0.66504498273707
H         5.00642474770907   11.33364631575835   -2.03940474610320
H         6.66216339649588   10.00463772602647    1.70894841702741
H         6.06543988063027   11.66029080412631    1.52466890323123
H         7.55659978806240   11.17496629019195    0.70746870323167

