61
CSD_code = FIGNUE | q = 0 | S = 0 | Stoichiometry = C22H35ClP2Pt | MND = 4
Pt        6.32916750173431    2.22482672239822    3.52910866500497
Cl        4.27466651096858    1.38426173904688    4.32346080406679
P         5.21943370745441    3.53793193805915    2.01834884835125
P         7.69362879204005    1.06424392026519    4.93713488308464
C         5.60491211653651    5.38036092812489    2.14111744743980
C         5.65356025266150    5.60109020240553    3.65738964570895
C         4.54168462530505    6.28327613168214    1.52055182693060
C         6.96781177249154    5.67781683371241    1.52398454282115
C         5.17866014835725    2.78334046319745    0.29590434040210
C         4.32588022456704    3.57307131524423   -0.69028008443278
C         6.60121458108633    2.60802933420137   -0.22734079548777
C         4.56714956082325    1.40096196274563    0.54874151578340
C         3.50376631055159    3.57869170168565    2.41025423921516
C         2.17025821446017    3.08977757095402    2.05075319451176
C         2.41909221944188    4.03182406794640    3.07441203094467
C         7.46421704598307   -0.64020168857053    5.68624225219684
C         6.51582236979181   -0.40998598075376    6.86456866209626
C         6.79280662433572   -1.54948615539706    4.66091985947290
C         8.80688771265097   -1.19087004596443    6.15480530419469
C         8.28575423707602    2.05300078768868    6.25290706938914
C         8.62778677642799    2.09163974750771    7.67410528512186
C         8.74005367860924    3.20500986024683    6.79929110823803
C         9.01603672377340    1.33821038991532    3.63579008137542
C         8.89378985489456    0.25680141147829    2.56599849924070
C        10.45881264856730    1.49816337691601    4.09485103382645
C         8.35205675819222    2.63670691525659    3.13073093895625
H         6.36904619777429    4.91501561294479    4.12503318555637
H         5.95702433462224    6.62117771504684    3.88613635361129
H         4.67397367833273    5.43035449682770    4.10320782128812
H         4.78915878743784    7.32228486519358    1.73497241268581
H         4.49331179693143    6.16694149831771    0.44107402150549
H         3.55488822549707    6.08446342941247    1.93330186384368
H         6.92668802391832    5.62199492929540    0.43828412704034
H         7.28046726059526    6.68544432791198    1.79420609530710
H         7.71638884868960    4.97888339890230    1.88858873526026
H         4.81001768532080    4.50525649941016   -0.97410122502506
H         4.18074439267903    2.98369610758814   -1.59466562702450
H         3.34433574061123    3.79283425896517   -0.27302420370892
H         6.58214914336780    2.05585727114705   -1.16585122787374
H         7.08671073453822    3.56368428712979   -0.40740424467897
H         7.19276827113881    2.04266723974003    0.49148164117863
H         3.51646578840158    1.48266957167527    0.82609775371143
H         4.64064135313783    0.78397569661793   -0.34503681559471
H         5.09890094290104    0.89418506122782    1.36308573412643
H         5.60486020951331    0.08502008591425    6.52354348578571
H         6.23757956269329   -1.36276515302395    7.31167476985229
H         6.98394764863986    0.20556716568402    7.63277386139725
H         5.91729715203817   -1.05348644093963    4.23903693653356
H         7.46976112132314   -1.81879506562627    3.85368412939150
H         6.46029778549423   -2.46725180798799    5.14327969634273
H         8.65427812447964   -2.13731295051176    6.67143227010710
H         9.47675652314615   -1.36752616813824    5.31457074245476
H         9.28604757610260   -0.49954493903365    6.84740550433085
H         7.84282861318672    0.12359956470949    2.28987884813687
H         9.44850115036431    0.55339474709569    1.67581241471155
H         9.29671707987375   -0.69450859311964    2.90882673849490
H        10.86031169996208    0.56017130868654    4.47440974011752
H        11.07382124846208    1.81770590741518    3.25408954548804
H        10.54196555772861    2.24844184416763    4.87906280667864
H         8.65041867011539    2.84343392659342    2.09927926596380
H         8.68131810221113    3.47847685078064    3.75190164457564

