58
CSD_code = FIGNOZ | q = 0 | S = 0 | Stoichiometry = C19H32N4P2Pd | MND = 4
Pd        5.59799557032494    4.47594969795039    1.00572021370564
P         4.41437579543786    3.36405220285789   -0.55887404393756
P         6.42567523925498    6.32194251488253    1.99052013313268
N         8.22556695891988    3.40619971625005    0.04837515894647
N         9.08235994488148    3.54164628188725   -0.98008871429813
N         8.60664005332205    4.42318040814723   -1.75269732778900
N         7.44805871452914    4.90370529173712   -1.28377528803408
C         5.13787552520167    2.28749634279328   -1.85333771863431
H         5.42501142498758    1.32545409814916   -1.43061449545968
H         6.01854112153315    2.77088420871726   -2.27315596619570
H         4.40431930797996    2.12703282565326   -2.64319387588929
C         2.86067370463851    2.47752924585089   -0.17044613848424
H         3.09183000007123    1.54049779569271    0.33465149177757
H         2.30413266401838    2.27249619106842   -1.08457350179825
H         2.26710266449719    3.09670960676466    0.50037260999492
C         3.83542059906279    4.78963496769711   -1.54565459903012
H         4.71993216249990    5.30772083545591   -1.92562681375989
H         3.28050056149240    5.46197328875682   -0.88572709214410
H         3.20231581566773    4.47330520072543   -2.37486503597550
C         8.10583426868455    6.97852893305020    1.66507566031695
H         8.32359863230895    6.87355108369776    0.60251188549802
H         8.85129133319503    6.42740582745279    2.23546732978365
H         8.14706484135685    8.03162636322074    1.94292134174899
C         5.39516046147447    7.58579505830332    1.16000296335497
H         4.34739763062938    7.38735433160165    1.39651068382452
H         5.54374561583994    7.47801400613864    0.08160109985861
H         5.66741470540516    8.59404828824297    1.47293257250044
C         6.19893103295067    6.71441579659906    3.76342605612327
H         5.17503846524643    6.47115066357057    4.04309257738212
H         6.39618075566760    7.77148126226380    3.94003943541732
H         6.87807671359679    6.11228483872392    4.36589345572920
C         3.96008141777410    4.66695311604461    2.16399259573899
C         2.96372202586886    4.87226425659726    2.82640765973010
C         1.80354128688589    5.09086507282106    3.61096040737752
C         1.51960527879399    6.36314216219591    4.11201117604945
H         2.19555787629315    7.18086970688874    3.89794288456766
C         0.38706574030175    6.57618672270707    4.87265122608124
H         0.17641263281175    7.56472935391272    5.25691854309886
C        -0.47846342316969    5.52895648512668    5.14564765014969
H        -1.36373362826792    5.69873333606162    5.74133200679024
C        -0.20433092658599    4.26309973062027    4.65234624940801
H        -0.87814784674172    3.44432614225591    4.86404066518741
C         0.92581629647287    4.04151314617705    3.89072845604916
H         1.14342200035755    3.05400634201985    3.50662605315131
C         7.19904012518745    4.27870073105506   -0.14939988522832
C         8.45894921129880    2.52168962648680    1.17665948492681
C         9.52587727561928    1.50334251413737    0.77773652436602
H        10.43853108928214    2.01408365340965    0.48362695887996
H         9.18473152959928    0.91122320601061   -0.06800731448580
H         9.73844925127389    0.83980169719111    1.61187751561281
C         7.15196956543856    1.81082048115011    1.55433550401727
H         6.38774556827814    2.54187602867104    1.90458819875705
H         7.34237708714191    1.10758914086686    2.36208318884026
H         6.75841483219691    1.25786425124413    0.70088380676574
C         8.93113200353420    3.36898396717824    2.36440893777034
H         8.13514772214971    4.06278857924292    2.65799790120814
H         9.82018293760244    3.93621042083044    2.09596066049226
H         9.16604078602123    2.73041295520954    3.21215888698137

