46
CSD_code = FIGRUJ | q = 1 | S = 0 | Stoichiometry = C19H21AgN3S2(1+) | MND = 5
Ag        4.61794203568555    0.35912240657938    9.57174330864553
S         3.81906274659968    1.07943460265541    7.16149412571207
S         3.87981262481755    0.52080371009256   12.10078587080517
N         5.77337944656958   -1.13063466583974    8.01426426862154
N         5.80989710359181   -1.43429409267253   10.73075069085019
N         2.35606241795701   -0.82932355830404    9.46566636602166
C         5.10175112190401    0.27359184466354    6.14726610490587
H         4.66773797972654    0.07700341285927    5.16604716995702
H         5.87001048058385    1.04224247297558    6.03147474513701
C         5.72901818038339   -0.96872296263047    6.71088665904264
C         6.28712429497873   -1.90741882634076    5.82337252115255
H         6.22894898663058   -1.74153279544540    4.75916672098332
C         6.91186914749697   -3.01656408849667    6.33221617999281
H         7.35833086136699   -3.74993804114215    5.67750484709715
C         6.96973048456649   -3.20370490490236    7.72578216330402
C         6.36824481906223   -2.21596040858639    8.53672827328928
C         6.38893067718491   -2.37490345820186    9.96604675867553
C         7.01226361945736   -3.51353320472033   10.52281107853053
C         7.61771190323017   -4.48061039398115    9.67227738437411
H         8.09300809845008   -5.33567476995872   10.12825543022770
C         7.59670264748424   -4.33173208591366    8.32549610838221
H         8.05464338314795   -5.06506373593179    7.67937693808129
C         6.99672584226458   -3.63618804361683   11.92464624870661
H         7.46251266744621   -4.49224050897163   12.38943508194860
C         6.38796278194081   -2.66926107041846   12.68217299673672
H         6.36193898210534   -2.74062633825057   13.75812320736406
C         5.80315002886378   -1.56287150526651   12.03855961392152
C         5.18969240810358   -0.48023144066778   12.87886149923975
H         5.95970654154759    0.24894026292807   13.14307550551424
H         4.78139390464422   -0.89239406086484   13.80257846964778
C         2.54163160537709   -0.73208129532431   11.95854033985016
H         3.01593013892568   -1.71053254851330   11.95524762796538
H         1.92431879158243   -0.63201852135146   12.85148984528615
C         1.67465717172900   -0.51363800923546   10.72467134190770
H         1.37393666313731    0.53669014878310   10.70732295953031
H         0.76550211860708   -1.12570156437020   10.83397042850284
C         1.64345641745315   -0.23475799270869    8.33095491796549
H         1.35258646742526    0.78493543576871    8.59478954958614
H         0.72627807823555   -0.80402231082809    8.11177783178565
C         2.47380684659228   -0.16945918686628    7.05505137681936
H         1.83270103708719    0.13283195486623    6.22677219777202
H         2.93850102240627   -1.12439746385347    6.82183735691142
C         2.43448067526185   -2.27919822489443    9.29588418711036
H         2.97260318155691   -2.52276832651482    8.38346871551678
H         1.43414334690702   -2.72960544442035    9.24686228523848
H         2.97830021992419   -2.72599040216615   10.12409270138344

