95
CSD_code = FIGROF | q = 0 | S = 0 | Stoichiometry = C46H40N6NiO2 | MND = 6
Ni        9.71376683051946   14.46899055822544    6.51907572887577
O         6.53485263835199   14.51961359804661    7.54442382632815
N         8.32168501026383   15.81741650756370    6.62025987553859
N         8.48726635337515   13.16272878429116    7.26386863846353
N         9.02044055689753   13.91219793195113    4.40216790439267
C         8.38782555981575   17.15543697267030    6.24769324534031
C         7.14110262999350   17.78448568278360    6.49011308328955
H         6.92289753524880   18.81596527124953    6.29138622597152
C         6.31122819869480   16.82948368658147    7.01078373497533
H         5.28970937607396   16.91082677866292    7.32252385612023
C         7.08570332518439   15.64696855739420    7.06837721034963
C         7.22812121066518   13.37313376755276    7.62134627636118
C         6.60028656887563   12.21368227928269    8.13422818931938
H         5.58759101063556   12.16500679104891    8.47978671734547
C         7.55051017368562   11.23079012226930    8.08251542512318
H         7.46098124217499   10.20503322119192    8.38392638037756
C         8.72053755825060   11.82047901749276    7.54196823441762
C         9.92004981155154   11.15716852753668    7.32208555251699
C        10.01015509920951    9.71597961537868    7.67109559190332
C         9.66787944196872    8.74539487506753    6.72846210030391
C         9.76092490071073    7.40444061935367    7.06910490326658
H         9.49593139292535    6.65563431404942    6.33565771806944
C        10.18701765129617    7.00360351583499    8.32596710149202
C        10.52213019259852    7.98142936783782    9.25091399711074
H        10.85638434492881    7.68554002977783   10.23560191170165
C        10.43999474094728    9.33014931329502    8.94208992273527
C         9.20783457478652    9.14601082206748    5.35935034541965
H         8.31592774087259    9.76821879666036    5.42747551572737
H         8.97523185646650    8.26872672735628    4.76053831530883
H         9.98573078003104    9.71669338538151    4.85262802618468
C        10.26253240429269    5.55116829946034    8.68787933473216
H        10.38234146562796    4.93495130401063    7.79999988952589
H         9.34508528489051    5.24457668519549    9.19163718395087
H        11.09414999820613    5.36338421544434    9.36352859247441
C        10.81042372305952   10.36277166413800    9.96336975756294
H         9.96031087392561   11.01331936327628   10.16717576238906
H        11.63230616882470   10.97763075515217    9.59737972044175
H        11.11717608621056    9.89018848116527   10.89338086433839
C         8.86211519111514   12.64426914670940    4.03932753196373
H         9.13470533879168   11.90486846149419    4.77777738364615
C         8.38047861354769   12.25624485410644    2.79930572537250
H         8.27286426025326   11.20874417545158    2.56260480283130
C         8.04462594059374   13.23617917421048    1.88009548957566
H         7.66576747254910   12.97410635621206    0.90263259812611
C         8.20951280700371   14.56122818015127    2.24762350564889
H         7.96494881719662   15.36331522286535    1.56812957467229
C         8.69844080388954   14.84480220872851    3.51282898362879
H         8.83936160653294   15.86750569637898    3.82993650453502
O        12.89268714580822   14.41836399541730    5.49371622637006
N        11.10585902303380   13.12058957834354    6.41788868051015
N        10.94028533556386   15.77523176894174    5.77430320301159
C        11.03972846581060   11.78256569555703    6.79045052987649
C        12.28646129601179   11.15351723227102    6.54803645319616
H        12.50467596810378   10.12203863515891    6.74676555566169
C        13.11631751469288   12.10850897992426    6.02735078054062
H        14.13783396751570   12.02716315349043    5.71559968414787
C        12.34183693822399   13.29102630442370    5.96976400876149
C        12.19942694349598   15.56483387159814    5.41681871371797
C        12.82727080812668   16.72428811019492    4.90394261821283
H        13.83996551799804   16.77296204462185    4.55837853098379
C        11.87706844447384   17.70718189640017    4.95567941561375
H        11.96661015128762   18.73294255691867    4.65428060753961
C        10.70702513796365   17.11748485374045    5.49620339885088
C         9.50753652377989   17.78081530506278    5.71606729240847
C         9.41755249244354   19.22200958212775    5.36704798911856
C         9.75995467598750   20.19257682266818    6.30965489532093
C         9.66715284032784   21.53353267463336    5.96895025694041
H         9.93226250336424   22.28232583768624    6.70236924248921
C         9.24119425866030   21.93438823876186    4.71204835194766
C         8.90595068565296   20.95657938837698    3.78713086502800
H         8.57181532852816   21.25248250828587    2.80240661809213
C         8.98784212512678   19.60785869444866    4.09601663317779
C        10.21989765116187   19.79194379091633    7.67879671912827
H        11.11165537479352   19.16951989590784    7.61071762278847
H        10.45270806572774   20.66921208854519    8.27755033120379
H         9.44186266631755   19.22148137203770    8.18555387414893
C         9.16599546427832   23.38682064155836    4.35005200834457
H         9.04627363463096   24.00311143476830    5.23789211347180
H        10.08352878769634   23.69319735314763    3.84631771820932
H         8.33444677947934   23.57473809661896    3.67435458159562
C         8.61731948264655   18.57525247141696    3.07475461871433
H         9.46733531635777   17.92454381280386    2.87105824802669
H         7.79529454184959   17.96055593603075    3.44070039354692
H         8.31073823124077   19.04784455497274    2.14469155561915
N        10.40644568025314   15.02580589188483    8.63618965609024
C        10.56397202150017   16.29375041345205    8.99931946402879
H        10.29196816681925   17.03313271774451    8.26063554094737
C        11.04409785863569   16.68181142544195   10.23991476202292
H        11.15113474588463   17.72932368302198   10.47682643806032
C        11.37923808182236   15.70189683209172   11.15940553807232
H        11.75693832088292   15.96399801049856   12.13730881209611
C        11.21518441665261   14.37682981249427   10.79156971657570
H        11.45923885525969   13.57475718924464   11.47126326172737
C        10.72776204221194   14.09321931086133    9.52579228345891
H        10.58750455840573   13.07050185347916    9.20843543085882

