65
CSD_code = FIGYIE | q = 0 | S = 0 | Stoichiometry = C19H40Cl2OP2Ru | MND = 6
Ru       -3.09585940715162    3.11430289771769    9.63263660422612
Cl       -4.21707200273698    4.74310601624491    8.39320296716144
Cl       -1.49275373850161    4.75818669600139    9.92357545215991
P        -5.00596587360751    1.78464150530844    9.79399914843688
P        -2.09526187608121    1.73917815609744   11.27296124330806
O        -1.98108508493794    2.13482693623475    7.06588140805385
C        -2.41053046927334    2.39822691994866    8.09804493811325
C        -4.57446972088601    0.35909298717128   10.91516905747654
H        -5.47022114811221   -0.00854440928663   11.42088898332008
H        -4.21754160279218   -0.43049069767028   10.25622638548281
C        -3.48833575889260    0.68752744882692   11.94022896489638
H        -3.07831621945849   -0.23527942707368   12.36093712358284
H        -3.92789604850706    1.25726231746194   12.76289644233446
C        -5.79927071224085    0.91389129374830    8.30615897409888
C        -4.79991725629788   -0.10755099972749    7.75282738046578
H        -5.15078424791137   -0.45882319487049    6.78415438882146
H        -4.69303573592442   -0.98041627687755    8.39212869001615
H        -3.82690132633137    0.35454197330179    7.60206472285385
C        -7.10081952593582    0.18904418888097    8.64352605399897
H        -7.43436501059070   -0.36464950008703    7.76666105196627
H        -7.89128213326347    0.88318907173927    8.91224341507031
H        -6.95866071246349   -0.52327992627618    9.45414334112082
C        -6.01934679997970    1.95968031652311    7.21051938013468
H        -5.12861129804032    2.57731400416842    7.09652138670092
H        -6.85757757254852    2.61261978697103    7.42383808089813
H        -6.21579270838674    1.46458910203043    6.26092057226717
C        -6.32192135477488    2.75979031699265   10.76484502020970
C        -7.23434487453487    1.91547911226955   11.65703694889792
H        -6.68595192999872    1.45152858695538   12.47475069509231
H        -7.75423369546669    1.14169702221280   11.10051217814701
H        -7.98563907132536    2.56892199042552   12.09959025870919
C        -7.16286214770835    3.61423373519235    9.81698845384513
H        -7.88472611915324    3.01706948743248    9.26679789824512
H        -6.51763065107058    4.14781399638783    9.11991166103279
H        -7.71991408222247    4.35214301071920   10.39419570722434
C        -5.51079182479932    3.70826168559686   11.65490088635955
C        -0.81216984166065    0.49355238088149   10.63434628203023
C        -1.55834846026819   -0.44395422404727    9.68229137475297
H        -0.84563455552248   -1.00115371077306    9.07700407866217
H        -2.19460339475524    0.13301622807601    9.01264308782307
H        -2.16202811457848   -1.16419501424012   10.22990204219905
C         0.22768441990890    1.27793114925449    9.82974665892451
H         0.94316696967134    1.78072470570649   10.47162810753490
H        -0.25928432675739    2.03480608898551    9.21280507836357
H         0.77874026970915    0.60502191618702    9.17492982533000
C        -0.12237947850966   -0.36530011178378   11.69241688288543
H         0.46774740871379   -1.12923357974359   11.18684472813122
H        -0.84260488482654   -0.87311554534947   12.33108041992293
H         0.55736126935061    0.21379555830078   12.30957013617600
C        -1.43230084228743    2.53907026239178   12.86785556190730
C        -0.04407574035582    3.11720624643247   12.59178386556543
H        -0.05915378095551    3.69772640736889   11.67046799268800
H         0.71201717814269    2.34055787531230   12.52360635827252
H         0.24173108946042    3.78264544285573   13.40555295573652
C        -1.38534431347176    1.61339573554555   14.08607748775804
H        -1.03160731704878    2.19340963569158   14.93810505880102
H        -0.70502358546235    0.78090090563830   13.95038772771422
H        -2.36621557836490    1.22071303046036   14.34332767260677
C        -2.36635533772462    3.70935253350182   13.19325034775019
H        -4.74262466430972    4.24038294583043   11.06631353216991
H        -3.32120844808508    3.36632453164503   13.58732073527087
H        -5.03516252358179    3.16287232205155   12.46688195099661
H        -2.53084061491503    4.32906095929476   12.30908450503797
H        -6.15788498206653    4.46582367336330   12.09559893390638
H        -1.91160807753394    4.34183552047099   13.95399074635590

