66
CSD_code = FIHJAI | q = 0 | S = 0 | Stoichiometry = C20H41Cl2PRuSi | MND = 9
Ru        3.20861893872577    0.11001390718230    4.35424681946434
P         3.01252594145328   -0.45801993035719    2.08091088105861
Si        3.78983448955450    2.43808657584082    4.28374465618380
Cl        2.33291187959610    3.60174575670547    5.26763211774378
Cl        5.50411403726352    2.84089817368447    5.43475450325039
C         4.12211967900298   -0.65997757595483    6.23127395358675
C         3.05804261178663    0.20418310005399    6.61817106987074
C         1.84553371270749   -0.33932654298664    6.09217645438453
C         2.14894097198674   -1.57883495119009    5.43649310058693
C         3.55914761987257   -1.77397748218719    5.50936364445077
C         5.51443865773369   -0.58630521431724    6.78018878670352
C         3.14772260110569    1.28026857327096    7.65523794397781
C         0.47839584427572    0.14251670109632    6.47299141587180
C         1.13925391613264   -2.64258432402183    5.12052786872545
C         4.27340567765070   -3.07381676324908    5.28457452563030
C         4.13242646637064    3.62372275575942    2.78760890399005
H         3.28122978039832    3.67291127605010    2.11538720263235
H         5.00207146863460    3.31226688366775    2.21907477457737
H         4.31905281909434    4.62869848093100    3.15784416659484
C         1.33234340234604   -0.19136908083762    1.29244858975443
C         0.25806022452972   -0.87565491175870    2.12926739785445
C         1.00581812923923    1.29158562075322    1.14503438671641
C         4.07998858343790    0.50909641250398    0.86665539278607
C         3.93923865320678    0.13404376926530   -0.60845419733631
C         5.56381720140607    0.57492611624741    1.22146510911949
C         3.29111932076371   -2.29371346307541    1.77218601795578
C         4.78242708104451   -2.60910447025509    1.85481004755656
C         2.68459601829771   -2.92223648693199    0.51917577584236
H         5.51473664028584   -0.95025483037305    7.81039923699998
H         5.88048648167285    0.43905941065425    6.77928005813386
H         6.20427970210477   -1.19533135570507    6.19988221671602
H         3.00411952095411    0.83259252400020    8.64237543345540
H         2.38395656616628    2.04051040819927    7.51025342882207
H         4.12035294970172    1.76631509226130    7.63847547548435
H         0.23491860342763   -0.22417779863289    7.47310979722806
H        -0.28304787629724   -0.21653237302716    5.78312307666567
H         0.44043041942691    1.23041912850251    6.49006787087986
H         0.95873149804225   -3.23404635166630    6.02245419943749
H         1.48737999919343   -3.32172864892574    4.34382796715628
H         0.18949428154444   -2.21717571184781    4.80432679071275
H         4.28913350128818   -3.63432295159853    6.22325956549823
H         5.30369834278989   -2.91747209423374    4.97129554235396
H         3.77617365902651   -3.68690645832648    4.53636676515692
H         1.35481472067472   -0.65531053191327    0.30178123781649
H        -0.71452688646521   -0.78109720289749    1.64800071062521
H         0.20342130246301   -0.39848302895755    3.10579655259763
H         0.47093268028630   -1.93331012205372    2.26751071092339
H        -0.04681538704775    1.41189547981085    0.89322015841633
H         1.59243456543503    1.76021663155660    0.35955031918334
H         1.19425890950453    1.81168251155171    2.08409951230270
H         3.67599429976238    1.51892847007538    1.01684564580536
H         4.43286594814162    0.89478158654166   -1.21230356582565
H         2.90391813061642    0.07753481419216   -0.93048767961789
H         4.42769518598405   -0.81426748461709   -0.81706259270514
H         6.02517986490425    1.39989783631798    0.68062139183475
H         6.08483578307389   -0.33566542699048    0.94226249594618
H         5.70130897360986    0.74653940278107    2.28568893140193
H         2.80131664450539   -2.75071077096886    2.64165928066343
H         4.93882997625265   -3.66363985833300    2.07961227591964
H         5.25231673498675   -2.01185643578633    2.63430403905593
H         5.27043743012629   -2.39530244494648    0.90757511660588
H         2.96170032119072   -3.97647339604080    0.49296007413927
H         3.05832059645128   -2.45839320247563   -0.38773283921972
H         1.59951799942467   -2.86770259241535    0.51733401025234
H         4.68089436585728    0.02199864043747    3.94883141040023
H         1.90130782331418    0.79754622996811    3.96974406924736

