51
CSD_code = FIHJUD | q = 1 | S = 0 | Stoichiometry = C16H22AgN10O2(1+) | MND = 2
Ag        2.91126291827333    0.30288364944368   22.73180271619115
N         3.11741228623900   -3.62876363797692   20.60909708366884
N         1.54381532227298    3.63391897261200   26.62284537741132
O         2.16461722888631    5.28790383957748   23.58511427645395
N         1.51305152769804    1.19468084737191   26.85420199168909
O         2.67235721694690   -4.60335467016738   21.27468717293234
C         1.86374320005149    2.04287347800227   24.84111938013360
N         1.97667517482302    4.33970999025103   24.39522069213054
N         4.39865325072037   -0.38334954641329   18.61363844353536
N         3.84171600863441   -2.76815966186059   18.51503010393386
N         3.95115007772516   -0.05229662505443   20.77732935697308
N         2.25500957802082    2.88518721347943   22.55698106415936
H         2.52536215368416    3.81198817999956   22.19886941934704
H         1.43921929901918    2.56443189286847   22.03878022967900
N         1.94572163628961    0.67757106880874   24.72390364261711
C         3.75100655765878   -1.37758690385565   20.48077437758835
N         3.01148177113741   -2.37801501564161   22.60739295558541
H         2.53801911297051   -3.26373226534573   22.83244343146977
H         3.82680970836729   -2.27846927037882   23.20876026066193
C         1.73297075814590    0.22705337850357   25.94400716880806
H         1.71812428241535   -0.81634143436291   26.19700858939815
C         4.00795033140651   -1.59491998256563   19.11361614100048
C         1.61617017287224    2.38285295376321   26.18524451996635
C         4.71797260405220   -0.10921554908826   17.23321716313622
H         5.31297594228073   -0.94376790835763   16.85562305559428
H         5.31037479787701    0.80695821036557   17.18969928328388
C         1.29933086618280    1.04536468899961   28.27364120677192
H         0.89147662048593    0.04967325127061   28.45986860732792
H         0.57073836593449    1.79861835254835   28.58150107442984
C         3.39400602391218   -3.72832598670946   19.27203280954866
H         3.22583801112164   -4.70147256511508   18.83668378530109
C         3.32487800871258   -2.44020798595494   21.25746705048905
C         1.74186065387762    4.55703507268883   25.72628854487427
H         1.71065899937135    5.59304726071019   26.02722543213805
C         2.60085602829237    1.24492374628670   29.05504699714454
H         3.34011266560159    0.51269458234519   28.72225208680747
H         2.98884850967051    2.24297623700558   28.84507871427484
C         2.00737501457604    3.05812327380323   23.91272731317828
C         4.33042528099042    0.48909280558986   19.63701356534996
H         4.57837462161060    1.52809571061835   19.52808387601622
C         2.35835230829696    1.09116736855685   30.55027038330699
H         3.28609777892524    1.23634669291078   31.09554580550532
H         1.97792735737697    0.09895935674261   30.78008874096843
H         1.63834176332083    1.82673908355624   30.89852269188571
C         3.79550414926275    0.30853435285867   14.93387841721413
H         2.88793875151147    0.40523935830920   14.34552505800244
H         4.38518299844962   -0.50555549655287   14.52126748584138
H         4.36430461351095    1.23023343141849   14.83965781366056
C         3.44756058325611    0.03345255932175   16.39033933371183
H         2.83924731180917    0.84978511245256   16.78655407933087
H         2.87123979352909   -0.89028146882120   16.46343123032027

