54
CSD_code = FIHJEM | q = 0 | S = 0 | Stoichiometry = C16H33Cl2PRuSi | MND = 9
Ru        5.18536854073893    6.20348386804366    1.32600235512206
P         3.52903645660911    6.58209662307100    2.89029802457452
Si        4.00667983613047    5.95777859346914   -0.74639947855672
C         7.15822113243638    5.73198360979338    0.31851143751266
C         7.14667799709828    7.08279442612890    0.77248228371562
C         7.02627423248643    7.07530484260182    2.20893581795926
C         6.95379273833122    5.71649019594952    2.63434833514460
C         7.00555390894734    4.88929705738444    1.46385936623155
C         7.56976090266931    5.26898004214178   -1.04485693036657
H         8.65111430824725    5.10920963344620   -1.05662786353621
H         7.32295260585243    6.00841758113302   -1.80291279248246
H         7.08300756279943    4.33315690093458   -1.31123376017982
C         7.52502561400378    8.26551080126269   -0.06534066758426
H         8.60644754918199    8.26471805176021   -0.22152812238276
H         7.24772616771049    9.19928000971869    0.41880904131472
H         7.03839750694721    8.22710372581204   -1.03838378633068
C         7.31878628665441    8.26112291992170    3.08049984937301
H         8.39367022136770    8.45881058499949    3.06700847555740
H         7.02134619756063    8.08541657497826    4.11194305761616
H         6.80972033828301    9.15492430073497    2.72280605932876
C         7.15830332537192    5.21212218028637    4.03202171192223
H         8.22071353041056    5.00220861155173    4.18197913045976
H         6.60656473051915    4.29178951149303    4.21310305527936
H         6.85540929003096    5.94673690390884    4.77558286545991
C         7.21144239241369    3.40484496961346    1.44983543070417
H         8.28310904312903    3.19294716326063    1.42237659763030
H         6.75251660789633    2.95542861203387    0.57100954532183
H         6.79266346122080    2.93290100695239    2.33643067172023
C         4.03597804676900    7.51867101871371    4.38887113792540
H         3.17226778324580    7.69412399851942    5.02985653004023
H         4.44917185859634    8.47241818169955    4.06446644879877
H         4.79417231419429    6.97195595928064    4.94407889798665
C         2.13872063689215    7.65529585196873    2.35851917530048
H         1.37569756529885    7.71297890451941    3.13482046189891
H         1.71516825600342    7.26108934978311    1.43806258577636
H         2.53779137045573    8.64794832244630    2.15535551595976
C         2.58038308077732    5.17647684993786    3.66623586237685
H         1.93649198898497    5.61731094544109    4.43887144014682
C         3.54020773820869    4.18618238015962    4.31006680121095
H         2.99322932462759    3.35096164228077    4.74420015401113
H         4.12492723177679    4.65797784396288    5.09742937132738
H         4.21619449239989    3.79580911567679    3.55049183755876
C         1.72050541443859    4.48712589923784    2.61427881102206
H         1.25928305532222    3.59324281344486    3.03076908131077
H         2.34018202749631    4.19572319021674    1.76620922169586
H         0.93065828649190    5.14416572274243    2.25876429449649
C         2.11777256569254    6.19822684794983   -1.11536365938383
H         1.90728499737959    5.93235316252009   -2.14801574894250
H         1.81722555567007    7.23172456068501   -0.97265133996976
H         1.50206911062766    5.56986612995524   -0.47911914978539
Cl        4.80186878643980    7.20266031875774   -2.24056806751275
Cl        4.29501299837028    4.05547098062550   -1.59372259745534
H         4.59646142574588    4.79338789630042    1.42801468030902
H         4.74199160304626    7.65179281078780    1.02631854336352

