71
CSD_code = FIHKEM | q = 0 | S = 0 | Stoichiometry = C25H32BMoN11O | MND = 6
Mo        8.49430418479062    0.39448337089226    9.33326640640536
N         9.18224044149343    1.96096504785932    9.58213855593677
O         9.71591994978878    3.01148211365632    9.73818522016579
N         7.68131590795061   -1.57873780163455    8.99536789778682
N         8.40806445205693   -2.51713230278623    8.36253055995947
C         6.50856718338209   -2.12319525778555    9.31533130293394
C         6.48257843705305   -3.45025945748141    8.87260744658480
C         7.70821416549307   -3.66550341151500    8.27245794429369
C         5.41808047537331   -1.40817214087127   10.03753338596477
C         8.21584192382312   -4.90633719254252    7.63155627910412
N        10.34236858142628   -0.65145030337160    9.75678071517125
N        10.66750147049626   -1.76261007841968    9.06897307427869
C        11.23107259731305   -0.50563005789200   10.74021553849262
C        12.15404294428922   -1.55248486558745   10.67612050218529
C        11.76651505311184   -2.32957022260653    9.59978044962577
C        11.18967326485783    0.59624645033396   11.73473960601606
C        12.40216747613519   -3.56694579474927    9.07707421365469
N         9.32398495387207    0.18363551147293    7.32866134190695
N         9.74768857185463   -1.01987636136917    6.89863303783163
C         9.37592922057373    1.02602148029375    6.29646909691475
C         9.84866146471937    0.34061402069101    5.17389864674701
C        10.07807937835905   -0.95621860402741    5.59566216500505
C         8.97193968527797    2.45381298323039    6.36809005003031
C        10.59073638812384   -2.10713692842362    4.80754314119229
N         7.95124843568243    0.07611862520606   11.19789154508776
C         7.87473027713082    0.85373519629977   12.31107930852386
C         7.67806467550844    2.24450701462931   12.22158178414089
C         7.63327802305685    2.97438084283558   13.38724870182679
C         7.76162524312408    2.32278974440068   14.61223994184493
C         7.90913789241009    0.94870902173508   14.59971708098958
N         7.96240741642179    0.22574958310890   13.49389207950820
N         6.81684741590755    0.99559707354494    8.43521554253190
C         6.26968883496751    2.22921126966571    8.33306373064722
C         5.21245925999940    2.52169434255757    7.44395361169261
C         4.71983140854442    3.80564958177044    7.38739537258589
C         5.27349817994968    4.78060243750048    8.20989241130400
C         6.29443803150629    4.39817693436894    9.06448858179092
N         6.77436474732388    3.17248986188631    9.13549407027138
B         9.82781258183929   -2.20825223956319    7.86589881154557
H         5.68026904366300   -4.15169535190981    8.97944968092963
H         5.23433786764031   -1.88694734673789   10.99978170786386
H         4.49349320031269   -1.46167312531300    9.46207392888038
H         5.67737982830171   -0.36238195431458   10.20893991527052
H         7.45547422054844   -5.68038504852771    7.69116928978961
H         9.11622080965454   -5.25882069514005    8.13160377490250
H         8.45809905602222   -4.73067009672292    6.58486210071328
H        12.98962025940962   -1.71788809995150   11.32514362205036
H        12.16530209393834    0.70567870935122   12.20235764654924
H        10.45812063948518    0.37444986742489   12.51253848033696
H        10.90842855120294    1.53510829407376   11.26401561608526
H        13.26871169483421   -3.81212490465378    9.68478245118698
H        12.72256678296081   -3.42989719492003    8.04586820740167
H        11.70419727795026   -4.40181067522974    9.10635857063306
H        10.00514829560786    0.73847049320625    4.19193241620343
H         9.55044155035752    3.03586928574805    5.65403687054463
H         9.12405561430911    2.85050346650683    7.36802603574870
H         7.91563872751563    2.56325668573006    6.11907418164004
H        10.76485070822828   -1.79401910455771    3.78182672931466
H         9.87410856638395   -2.92655479501107    4.80912664464123
H        11.52549736887573   -2.47499389599130    5.22661759887754
H         7.85930108413716   -0.89572202078286   11.51360266807942
H         7.53935808726766    2.69346623932599   11.24928923890813
H         7.48734389640331    4.04467852117851   13.35401272315438
H         7.72954255019002    2.86643314236471   15.54344466143023
H         7.99021806766114    0.38396288456086   15.52119541321161
H         6.28178498797361    0.33973091183369    7.85981320847857
H         4.80631449499488    1.73953710081964    6.81562954143818
H         3.91316137280042    4.05152737294215    6.71022129102224
H         4.91438778508802    5.79703691313229    8.19143905589872
H         6.75537026210646    5.11161264119981    9.73612597448727
H        10.30313465918831   -3.14969770695010    7.34087160185101

