62
CSD_code = FIHLOA | q = 0 | S = 0 | Stoichiometry = C25H27N4O5V | MND = 7
V         1.15369908419828   -3.06691475533679    9.96886597403847
O         0.65786042825294   -1.40815012140904   11.05278127238027
O         0.69477473904429   -4.05782882184558    8.24028743620286
O        -0.67664438945813   -2.52520378890025    9.43345214397152
O         1.96644722477873   -1.78879676238276    8.77750330942311
O         0.76140014960790   -4.13890634680531   10.97228086820064
N         2.64149421615261   -1.60296595306011   12.08513388773026
N         2.79452548873283   -2.57460306595861   11.21810723998617
N         2.81877931920020   -4.26159107716997    9.42609486924646
N         2.69229747620563   -5.06936641752391    8.40153811031314
C         1.45868160542771   -1.02272815017322   11.93977830933641
C         1.11649975796777    0.10596125763699   12.82059622949399
C        -0.13529934037798    0.70825578792199   12.70205065473592
H        -0.82505183564606    0.32870834519174   11.96237797022834
C        -0.47894079705811    1.76280051310122   13.52206637848617
H        -1.45160612477314    2.22417106082833   13.42628141622512
C         0.41221888650979    2.24182131898723   14.47808065912843
C         1.65937228919830    1.63601529703259   14.59093034941253
H         2.35939757380684    1.99853819011342   15.33032523440670
C         2.01355054823798    0.58009111987579   13.77474187416167
H         2.97958344602911    0.10957289283148   13.86296448829434
C         3.87964889247142   -3.28470613108022   11.19142931691514
C         5.01060817416742   -3.10012112779213   12.15467577947244
H         4.78514484118540   -2.26772661118808   12.81466600372799
H         5.93749434625485   -2.90271183506980   11.61912684925136
H         5.14514371826852   -4.00329853111721   12.74758389226554
C         3.89254257179843   -4.26502979687962   10.15384355012648
C         5.03612764527937   -5.20536710769913    9.93225019757359
H         4.78705462711301   -5.88473967368170    9.12244284598771
H         5.23087510759664   -5.77536375652901   10.83869530944898
H         5.93875304981402   -4.65242837000135    9.67664901881839
C         1.51540644000639   -4.90632723425770    7.81328495295526
C         1.20611031683226   -5.71957437115273    6.62588051357458
C         2.14737429952441   -6.58735172946879    6.07522104554054
H         3.12114717556059   -6.65983965417927    6.53233794212759
C         1.82671999966252   -7.33524475055108    4.96110412085345
H         2.55972010624850   -8.00634669069961    4.53619587568950
C         0.56892307136732   -7.24060585825703    4.37094160811117
C        -0.36591808825107   -6.37487704237434    4.92768994252619
H        -1.34716437336869   -6.29387477244666    4.48199538589341
C        -0.05489345933905   -5.62104155155874    6.04155767386979
H        -0.77864989027271   -4.95019823954059    6.48085380463335
C         0.01977525763645    3.37170406279810   15.37880373844295
H        -0.52219277738013    4.13621878746227   14.82590119189497
H         0.89275844868471    3.82250234905298   15.84394609682365
H        -0.63605230076213    3.00475026759014   16.16881036824295
C         0.22986863569091   -8.07461611901740    3.17452431859726
H        -0.62763736133968   -7.66758517257502    2.64463977701041
H        -0.01462123003473   -9.08994792145060    3.48802977540688
H         1.07473468458422   -8.13189646374357    2.49139280316644
C        -2.40398285830691   -1.35666873287191    8.34022097569358
H        -3.01051823331637   -1.97914679691513    8.99356432815959
H        -2.63377937564834   -1.59097467055715    7.30276843865267
H        -2.63330220413169   -0.30810034180260    8.51509505044639
C        -0.93289572915670   -1.62473237477510    8.61192404389958
C        -0.00541081337677   -0.83931210788818    7.90969956396766
H        -0.38968620730290   -0.09145405773122    7.23168965102649
C         1.37633303014005   -0.96356250025544    8.03139597314335
C         2.24669338511760   -0.02276119428199    7.21887800901719
H         3.24728916011131   -0.43920511843530    7.12160552528648
H         2.31937172302595    0.93273901885644    7.73753560836799
H         1.82224644780621    0.15114339911130    6.23411045798979

