60
CSD_code = FIHMER | q = 0 | S = 0 | Stoichiometry = C23H21N6O9V | MND = 7
V         1.15164846033924    0.20744592830564   26.27665551821236
O         0.20976824274417    1.60795626725526   27.47996966512344
O         1.17454327666187   -0.56095849839940   24.35001365942928
O         0.29903398971173    1.52707367514631   25.09951701456112
O        -0.46120776595495   -0.77209048045548   26.45609224215050
O         2.54228398558549    0.81754082406185   26.28172456277898
O         2.02909348640649   -3.02944146647388   18.01145325979596
O         2.92633836969560   -4.80873061690316   18.81329785554652
O        -2.15757790614928    6.47948326845893   31.68239056004431
O        -1.44067379328840    5.37895906322311   33.38204903705955
N         1.03962014307721    0.47625054299366   29.23569994833787
N         1.44341384216647   -0.34788358175140   28.29765030280996
N         2.04364035472621   -1.71114677305772   26.33579328492421
N         2.26752335610562   -2.33130778274261   25.20119303520261
N         2.41817320014527   -3.71466967634987   18.93235877169832
N        -1.59873485691676    5.53124342583597   32.18991884662959
C         0.39972529735265    1.51120318613422   28.71457932302763
C        -0.11690008280986    2.54435141572302   29.63687329883148
C        -0.74586361817379    3.66932725487072   29.10161627914128
H        -0.83424437233259    3.75231097529443   28.02875167818078
C        -1.23346536875415    4.65344294724113   29.93591671269156
H        -1.72251904967291    5.53431928599726   29.54848773781715
C        -1.08765814914636    4.50669884912280   31.31105800764666
C        -0.45869911848339    3.39241315118659   31.85767569754717
H        -0.36198689747674    3.31789577398946   32.93022758356353
C         0.02619353285134    2.41134860604416   31.01831291284269
H         0.51991052543539    1.53788058319796   31.41099706556682
C         2.09630265910877   -1.42774969726825   28.59863063164470
C         2.46926724956440   -1.80222870946247   29.99721370921954
H         1.95909653811664   -1.14475749662947   30.69496679144984
H         3.54464614055935   -1.69462652956597   30.13311601521993
H         2.20202415078193   -2.83702023585167   30.19962207562895
C         2.44575882579258   -2.21803859833546   27.46022079135405
C         3.21161381971741   -3.49829284158788   27.56094755262946
H         3.46770874037718   -3.84343771652159   26.56364220670473
H         2.61239416976890   -4.25877534686377   28.05998245893824
H         4.11957392087492   -3.34615217819397   28.14056208954633
C         1.78458579894925   -1.64171372867007   24.17966606225174
C         1.95720522009582   -2.20036313937258   22.82199497059640
C         2.52761237311885   -3.45895210197596   22.62956028491563
H         2.84227616136666   -4.02737623439928   23.48912835085507
C         2.68094741793752   -3.95659917454553   21.35244278415430
H         3.11876542919466   -4.92668239206743   21.17211849398284
C         2.26180855614558   -3.19154049027780   20.26848286718799
C         1.69510040190749   -1.93413693031012   20.44619846764143
H         1.38622550559864   -1.36777443226456   19.58073062057913
C         1.54443622672201   -1.44176821828975   21.72576031256047
H         1.11476801023643   -0.46711086890155   21.90226971131018
C        -1.34924791528992    2.63335793576136   23.83209331827616
H        -0.51065072485849    3.29540895572539   23.62932485453962
H        -2.15068118572196    3.19533554370808   24.30717614077217
H        -1.72596219502709    2.22439694786901   22.89696684816033
C        -0.89608879776611    1.50902151195934   24.74382844366992
C        -1.85572703659075    0.55077247659510   25.10660046537877
H        -2.85774543919120    0.66077560552818   24.72011504977293
C        -1.58668630836268   -0.53192683912001   25.93870746861775
C        -2.71942879917176   -1.48703086012837   26.25401050850071
H        -2.34563605056079   -2.32306351175631   26.84196744606761
H        -3.16566200258563   -1.86038153888353   25.33494046824842
H        -3.49147994464999   -0.96958531384436   26.82093787846222

