42
CSD_code = FIHPAN | q = 0 | S = 0 | Stoichiometry = C18H23Nb | MND = 12
Nb        1.32899672621049    0.34247179065140    4.07546881747178
C         1.68070328814587    1.08296364366708    2.17568615172213
C         0.61621112361674    1.87827139650096    1.69758131699276
C        -0.22849996295595    2.40946560211175    2.66736365570807
C         0.29365869744479    2.41010730980297    4.03234665282915
H         3.54817845612562    0.12842815685370    1.69297579168545
H         3.21982005398257    1.59415937752659    0.75714144990647
H         2.35745091014703    0.10371229060827    0.38549153849389
H        -1.49863671707058    4.07958203978044    2.23811109030934
H        -2.28175169432726    2.80287018921237    3.15541997268890
H        -1.98607047425837    2.58244091281102    1.43369022789546
C        -0.26663773950160   -1.26763264130575    3.13231556386328
C         0.51934025341225   -1.98846467896475    4.06844930749092
C         0.11266212363289   -1.60390376473930    5.36123657583631
C        -0.85646175342880   -0.60697956097535    5.23900585590982
C        -1.10930174571838   -0.40452012199516    3.86038078921086
C         3.67234394047517   -0.32695515414705    4.66807218406646
C         3.18784033432976   -0.93466645232471    5.84669332029146
C         2.60969475319160    0.04561054137520    6.64819536940902
C         2.71798580387060    1.28415044654901    5.98894485603169
C         3.42746568741454    1.07802487672598    4.76558077497365
H         1.20398339801728    3.03141199439115    4.06286881922676
C         2.76434768786766    0.70596664127657    1.20172902035564
C         0.41865637891026    2.13648076685091    0.22488894179760
C        -1.57541665110953    2.99581219350380    2.35176351248400
C        -0.64093873195237    2.86059818383832    5.14255641611341
H         1.34364496850404    2.50849582072739   -0.21249856661304
H         0.15296224798902    1.21520042522015   -0.29518456946807
H        -0.35728482904869    2.87378369090956    0.04480992506209
H        -0.94742840858998    3.90014808938788    5.00552538847376
H        -1.54028590755380    2.24676282019577    5.18540524468564
H        -0.13361158468620    2.79073573109095    6.10552701106245
H        -0.33039639154726   -1.46969960573968    2.06945228840111
H         1.16187144391790   -2.82769976514339    3.82929039010825
H         0.45886082195369   -2.04093431797752    6.28668839818090
H        -1.40072517010049   -0.15307402846008    6.05453718933782
H        -1.91777047489710    0.18018206010183    3.44144989262492
H         4.34611818148421   -0.79434848210637    3.95985953440968
H         3.28266602891449   -1.98288193842821    6.09134844023842
H         2.16928788756815   -0.10735198150959    7.62214318839526
H         2.52100140412532    2.25222257938530    6.43326173026689
H         3.98156563549693    1.84325292276232    4.23032654206415

