83
CSD_code = FIHRET | q = 0 | S = 0 | Stoichiometry = C30H50FeP2 | MND = 4
Fe       -1.03544162246471    0.77515817661289    5.93468428361775
P        -0.21865814526897    2.36756215626770    7.22285232790404
C        -2.41997907915849   -0.51268059148722    5.24970943374922
C        -2.90362247526751   -0.93956158901308    3.94532754919264
C        -4.11625221160032   -0.49152892363888    3.41183331509221
C        -4.53128728363398   -0.86893128958224    2.14893169526286
C        -3.76104768488128   -1.71709132830140    1.36646241658900
C        -2.56789345123419   -2.19574645878840    1.90078217801562
C        -2.15236099225652   -1.82198513873511    3.15926286738662
C        -4.19571469297404   -2.12728229890763   -0.00883580769160
C        -0.80257087930235    3.95730662691367    6.43281720342496
C         1.47815319640255    2.89506548199694    7.84055900248189
C         2.35980610209073    3.19274824156607    6.62949155000078
C         1.52901032044526    4.05413625940532    8.83237675740142
C        -1.20224913028923    2.37416274170656    8.82077760612605
C        -2.61906096206954    1.91881697060434    8.48088004906940
C        -0.58828103760507    1.38742910069619    9.80914086434771
H        -3.22882145787929   -0.02520459638768    5.83078585376291
H        -2.05746705431229   -1.38546248287743    5.80610776932189
H        -4.75691578860502    0.14267151629826    4.01100036794893
H        -5.47583564808986   -0.50267376749287    1.76777356013199
H        -1.96247090441362   -2.87465070884774    1.31536097553159
H        -1.22480223927394   -2.21330991531934    3.55360979438722
H        -5.15936186723151   -1.68962625479248   -0.25959156685157
H        -4.27953336691865   -3.21192802771852   -0.07620303951400
H        -3.46506059847806   -1.80478111687880   -0.75099181234773
H        -0.27171533902318    4.82038077329102    6.84102908211996
H        -1.85952371244126    4.07285104461299    6.68181482278967
H         1.86964540409413    1.99775493313989    8.33268235536707
H         2.19370722863013    2.44622021278449    5.85531115938600
H         3.41263650955462    3.18235966612021    6.90876900218684
H         2.13356560135855    4.17582036032814    6.22069815810911
H         0.99184592341425    3.83140795446769    9.74990658434769
H         1.11766899316143    4.96715728205897    8.40686915148547
H         2.56830542038415    4.25227100256292    9.09334590441700
H        -1.23321749616452    3.38195307197975    9.25131430094726
H        -3.13172437048243    2.63976467906755    7.84723363684510
H        -3.21278437131603    1.78380569447168    9.38425144882727
H        -2.57265534275485    0.95559276947531    7.95625934488780
H         0.40277076756440    1.69431706638652   10.13180139201861
H        -0.50100247966552    0.40565583729658    9.34465855498718
H        -1.21844590259746    1.29510263454348   10.69376599688928
P        -1.11193530694039    2.19379871840456    4.26368694259028
C         0.71941083790236   -0.18007685666303    5.45528735600602
C        -0.62699635013604    3.88386236378865    4.91818774211255
C        -2.83665725698194    2.57565374799676    3.60822826726185
C        -0.18066083660873    2.20513866943500    2.63516670566258
C         1.08489561946477   -0.66455045942161    6.76652883421304
H         1.54308469656219    0.33764254805517    4.97382532700973
H         0.30602947884052   -0.94516599005078    4.79926240547106
H        -1.20543497916734    4.66849537566810    4.42434701921526
H         0.42211109691556    4.03916107120674    4.66552291230640
C        -3.72674089719591    2.94216411386301    4.79374409901036
C        -2.98146407387599    3.61848757505940    2.50281989241150
H        -3.18200546301551    1.61339241236632    3.21663063612735
C         1.33669622012579    2.15729925227495    2.78048939038152
C        -0.63989078869471    1.01061435308680    1.80473876424933
H        -0.44196188494998    3.14385946563004    2.13180039388702
C         2.27652552823226   -0.26804742078781    7.39745418792164
C         0.24943437951739   -1.53028939475528    7.49644152236828
H        -3.53026743254904    2.26701006621190    5.62725126044092
H        -4.77955859132039    2.86178657939405    4.52466096297019
H        -3.54382693035944    3.96523930770013    5.11775434265345
H        -2.55748466204305    3.27366530967739    1.56423843263691
H        -2.51551599958599    4.56556782532348    2.76873848045511
H        -4.04138345671811    3.80845236533262    2.33482657325796
H         1.70925815332468    2.91414361614990    3.46611108254685
H         1.80007179016784    2.32812712431604    1.80906477282416
H         1.65019079178880    1.18104289710437    3.13493221633432
H        -1.70139052448307    1.05427475010357    1.57663259927512
H        -0.45715175075845    0.09266317325655    2.35786606021729
H        -0.09034669989807    0.96659655594001    0.86528584079890
C         2.58960290421797   -0.67400370644784    8.67656221209191
H         2.97669962846608    0.34444241978107    6.84800189213111
C         0.56582989221605   -1.92736700708692    8.77997545322551
H        -0.63559082445454   -1.93713260303689    7.02757848649091
C         1.73336174875040   -1.49677633037061    9.40093587264784
H         3.52152914351643   -0.35476178789022    9.12505526692004
H        -0.09922408323975   -2.59443294401226    9.31329350218789
C         2.05528952987280   -1.92645424862062   10.80014340710588
H         3.02793300131627   -1.55017261770605   11.10843023008758
H         2.06351568124807   -3.01355628182597   10.87589584126262
H         1.30326079128084   -1.55142177419158   11.49528672337153

