85
CSD_code = FIHSUM | q = 1 | S = 0 | Stoichiometry = C44H37P2RuS(1+) | MND = 8
Ru        3.30372886564667    7.63505415670138    4.68993806509893
P         1.77088427482761    6.06496604266684    5.29860554499299
P         4.20580526977888    5.91250587626469    3.51428140997163
S         0.03603235925175   10.82236805137564   -0.42719876100914
C         2.23709875839619    7.88863174532738    3.07532670520876
H         1.35524977460743    7.27169876503944    2.84431217457702
C         2.41028140362830    8.91513997057147    2.11266934446441
C         3.67143706834047    9.40405297782700    1.79347659345192
H         4.53032998187121    9.00198136580434    2.31226063887069
C         3.90102976345291   10.31526617377653    0.74933575070473
C         5.20396460296679   10.74318658100456    0.41621479703798
H         6.03696427552766   10.35040897245732    0.98134590691611
C         5.40814477200255   11.63602924825373   -0.60000642942939
H         6.40758019369511   11.96011790735015   -0.84695414282105
C         4.32168776817119   12.13893735642541   -1.33027318563068
H         4.49906837403838   12.84455975233479   -2.12719573631306
C         3.04324273265762   11.73772621531978   -1.03983430548966
H         2.20235800054404   12.11743044294895   -1.60148505151051
C         2.80494431489762   10.82126776382690   -0.00442507574971
C         1.51865733087853   10.34715013951622    0.33758058029618
C         1.29776245044545    9.40846478537904    1.34641147906039
C        -0.08165106323991    9.10138158485577    1.48844083821314
H        -0.48057764666795    8.41642246732354    2.21540954818804
C        -0.85752283734660    9.77912085112774    0.60884280815700
H        -1.92332771052730    9.73156857218895    0.50114656593504
C         3.06200481479853    9.13582812854805    6.28847927346006
H         2.17974700541845    9.44921076393361    6.83328867951333
C         4.02765046685864    8.19468548343587    6.76753605596794
H         3.94851216125772    7.63606613944586    7.69109289567765
C         5.14524715509724    8.25751780502591    5.92521941687467
H         6.08908506851214    7.74995449550412    6.07490176241579
C         4.90007414566422    9.24944219016517    4.92660813709267
H         5.64460138058490    9.63486452368554    4.24474160502178
C         3.63359909418432    9.81659565200191    5.17881871387251
H         3.21227329612403   10.67779944773548    4.67667058573516
C         1.92786918287880    4.53283973581305    4.24512764700909
H         2.35204943579939    3.74221083461249    4.86901905160282
H         0.92979571766076    4.21699444509394    3.92782385089542
C         2.83073038292385    4.77118006101032    3.03403019923051
H         2.26715817851935    5.24508224526269    2.22611651302298
H         3.25107132189642    3.83104458284344    2.66191623566468
C         0.00663604338272    6.49791171975821    5.18650619368262
C        -0.37184219411884    7.81640713587267    4.95967988558339
H         0.39585244161220    8.56945830339655    4.80877050310336
C        -1.71278248827959    8.15718162730608    4.92259937510021
H        -2.00359457120579    9.18134867944195    4.74218673438697
C        -2.67861354361782    7.18379066631006    5.12006976249230
H        -3.72423491681747    7.44862659628679    5.09077996172458
C        -2.30441812387176    5.87146293903789    5.36703393309299
H        -3.05859640474683    5.11758994380933    5.53381181195886
C        -0.96639200566184    5.52616706358625    5.40718624564956
H        -0.67254054431491    4.50743566167532    5.62181668268793
C         1.85321532063746    5.48177919201941    7.01892942228244
C         1.20414830640120    6.27256874645769    7.96843223978738
H         0.63749986854509    7.13531733904328    7.64235527405326
C         1.27345540041048    5.95396271145859    9.31069283797023
H         0.76274460889142    6.56819015549589   10.03666187592147
C         1.99966960873198    4.84721200572028    9.72302838454538
H         2.05472469850565    4.59630920688137   10.77099290750346
C         2.65803797156536    4.06691455330568    8.78742484226697
H         3.22817335634480    3.20687927697185    9.10534694167185
C         2.59332028569103    4.38204226841168    7.44095363281772
H         3.12774294527788    3.76511096895656    6.73287010125889
C         5.34069739218913    4.75233703541362    4.33325034603113
C         5.46809908040197    4.76090511121135    5.71652320431091
H         4.91513089545248    5.49000451888114    6.29661993429709
C         6.29093698886936    3.84126767288221    6.34344374564799
H         6.38793199312810    3.85075642062254    7.41885529160368
C         6.98956895137290    2.91355677168486    5.58877872997845
H         7.63563056941111    2.19943895190024    6.07569220414974
C         6.86276253386777    2.90063467933148    4.20722503031096
H         7.40813467006115    2.17611394982217    3.62189822201256
C         6.03981650445210    3.81413439368963    3.57631889235343
H         5.94065644559663    3.81259104357077    2.49904713460608
C         5.07709860541222    6.35398842645328    1.98885851113529
C         6.41272105252520    6.73666681050612    2.11553603601830
H         6.90418783407881    6.63372392405819    3.07553695944240
C         7.09986667353225    7.23642796856979    1.02609982093560
H         8.13515792418292    7.52563712762570    1.12808618807769
C         6.45616092432453    7.37159559262927   -0.19465813621507
H         6.98939788634399    7.76899118166653   -1.04434933387816
C         5.12752443671508    7.00167900210288   -0.32335448096613
H         4.62658175504734    7.11137609218505   -1.27308881138660
C         4.43327394065810    6.50179835685020    0.76410584420303
H         3.39321499298614    6.23135390736302    0.65662843153897

