61
CSD_code = FIHWOI | q = 0 | S = 0 | Stoichiometry = C24H34Cl2Zr | MND = 12
Zr        6.16623378536774    0.74653088896544    9.48062998125681
Cl        5.01433706765283   -0.82514590488164    8.16345916201192
Cl        5.82133371551299    2.35077424022632    7.81477930650360
C         9.34960821450631    4.66777162804140   11.14720445763850
C         7.99499199737028    4.17557670348713   11.65365592932362
C         7.49741915674583    5.03913556839732   12.81086458466998
C         6.11432465638175    4.58423012565315   13.26401756843227
C         5.11988680625849    4.72920225714523   12.11498097729604
C         3.64831054836355    4.55397333872323   12.54235034146506
C         3.12616649650210    5.83567587029419   13.19541879175256
C         3.40221699430948    3.37305288840503   13.47925914409019
C         5.52729427507880    3.84168227472755   10.91112904489383
C         6.97872678090925    4.17579515486358   10.50781540725055
C         5.28047267980154    2.35953554278505   11.07819923277736
C         6.00977484499379    1.40484899312626   11.84058654845028
C         5.34508166977463    0.15289980898424   11.75852189253960
C         4.18453420250819    0.32337791127375   10.96848880977759
C         4.15699202495717    1.66867890492838   10.51919054884279
C         3.01644600929306    2.21511844666418    9.70240593625618
C         2.20754612939047    1.05370963730769    9.11995666142066
C         1.82552307468640    0.07520395430913   10.23011296703953
C         3.06583695183284   -0.65855973676963   10.74866675329324
C         7.85445695437556   -1.09191970719112    9.25659396672681
C         8.17484704232426   -0.41634133901915   10.45158674181588
C         8.58963409977584    0.89416338895051   10.11480940638462
C         8.53086468791535    1.02175910668895    8.70758448965382
C         8.07422252727720   -0.20377424841123    8.17891200468683
H         9.70091643712943    4.05204947376164   10.32170478834298
H         9.27363705280073    5.69431689616791   10.79558103800986
H        10.09151234878129    4.63477048293893   11.94231365458170
H         8.12332998459843    3.15756246552242   12.03112054828172
H         7.44915555170881    6.08291672707546   12.49139617178509
H         8.20340144609270    4.97935676134503   13.64248072344714
H         5.79286294409348    5.19730763734743   14.10724994415100
H         6.15510120912505    3.54831158684072   13.59860528737217
H         5.20930018701805    5.75976951847110   11.74839865751552
H         3.06734650191150    4.39451523543346   11.62861733552348
H         2.07769764756735    5.72155944495249   13.46114603418731
H         3.68017402612937    6.06340231258065   14.10297340206358
H         3.21476676542732    6.68159001468217   12.51731411050801
H         2.33253833970567    3.24733217591819   13.63428345376695
H         3.79598683286647    2.45048517459166   13.06665861738375
H         3.86163348528468    3.54827461310054   14.44855932957997
H         4.89713793906609    4.15484026596050   10.06783031705380
H         7.29947296800129    3.47442910034979    9.72276787608029
H         6.97599727079130    5.17747252881941   10.06952285800800
H         6.83447601423654    1.60429459687698   12.51049947196969
H         5.58479927276080   -0.73087786660581   12.33882690609554
H         3.38193940547748    2.85981019851436    8.89606246361453
H         2.36015677863406    2.81630792477282   10.34224428269888
H         2.80467084812818    0.53587603794337    8.36424881372521
H         1.30857554982179    1.44131930450664    8.63737829621052
H         1.10136603110357   -0.65134090513828    9.85952206329372
H         1.35992829279763    0.63020008174843   11.04868883300806
H         2.83634382210604   -1.16856716104171   11.68969265674381
H         3.36261216941501   -1.42337916361299   10.02297920829731
H         7.58186856260244   -2.13697419696859    9.16868185882696
H         8.23612334703056   -0.86611130907299   11.43506960066947
H         9.05693944552658    1.59824992752215   10.78919285277342
H         8.88348296706766    1.86676285118768    8.12691433359256
H         7.98296516132647   -0.44758843416825    7.12669355458689

