70
CSD_code = FIHXEC | q = 0 | S = 0 | Stoichiometry = C33H27N4O5V | MND = 7
V         0.83054460172923   -0.11660651251619    7.68727652948729
O        -0.76010640424313   -1.12402610687651    8.51563226291074
O         2.83650319369385    0.24939691628218    7.96321108463513
O         1.25355511860186   -0.46268187489821    9.59142888739300
O         1.42588216211908   -1.86126068897790    7.16313076049302
O         0.30845400728733    1.30187309081808    7.84286343834928
N        -1.79398492837615   -0.86377373513090    6.54102671716718
N        -0.62237793520733   -0.41493121047164    6.17506279922695
N         1.65971815153614    0.43034800275696    5.82067751693582
N         2.92452438384443    0.76128688038050    5.77965729985785
C        -1.80095100160294   -1.20773709501164    7.82155567024107
C        -3.05474174068601   -1.73559871917167    8.38787799838187
C        -3.08675468960224   -2.13012970688934    9.72393943626007
H        -2.18650728283183   -2.03773270811356   10.31378514635770
C        -4.25590206970378   -2.62159874569454   10.27231845664392
H        -4.28068350251472   -2.92584398225593   11.30836738045051
C        -5.39816391032257   -2.72087355789626    9.49355995252099
H        -6.31220002922563   -3.10347210276851    9.92377723123855
C        -5.37102982120394   -2.32585422975043    8.16444315309601
H        -6.26510140920467   -2.40069093703589    7.56302771304224
C        -4.20574772985142   -1.83379378125996    7.60819864525873
H        -4.16651283343055   -1.51499083241661    6.57864839576043
C        -0.41211552459197   -0.00370146264758    4.95861495422136
C        -1.45932843948985    0.04685547714884    3.92423712197106
C        -2.31365759858351   -1.03406321577020    3.71846372368139
H        -2.20096294498066   -1.92137456316532    4.32175045967923
C        -3.28866313548043   -0.97334445252525    2.74000998473932
H        -3.94266953575572   -1.81840083100355    2.58214974924120
C        -3.42916115191121    0.16554453244547    1.96446266175144
H        -4.19278120545308    0.21091052790641    1.20217139283800
C        -2.59116723456406    1.24883112109181    2.17341251014034
H        -2.70381999973865    2.14232564891227    1.57756320830204
C        -1.60971307575707    1.19320743109971    3.14482575247303
H        -0.96809048000054    2.04375130737103    3.31741124253340
C         0.93131473499720    0.45030896299059    4.74230147143221
C         1.44645540698319    0.86141063772657    3.42565897022305
C         1.16483536934019    0.09878884624280    2.29287967754484
H         0.57840069599968   -0.80292284679054    2.38610567900638
C         1.65019056114207    0.48387954616137    1.05731602332809
H         1.43046590685716   -0.11501913760279    0.18587582683497
C         2.41564602411043    1.63197720936059    0.93527527051668
H         2.79035520504971    1.93197826472359   -0.03212173720747
C         2.70175399272990    2.39167716986503    2.05786570043254
H         3.29874189338382    3.28700489705040    1.96611601438967
C         2.22601573129519    2.00933882395386    3.29822826460469
H         2.44151738603317    2.60097791118271    4.17430717951780
C         3.49199655406670    0.64841907131901    6.97150732332768
C         4.92150581822737    0.98666490530861    7.09065597417609
C         5.66248392757576    1.36499229941195    5.97261962894421
H         5.17508626008338    1.39773685578585    5.01098476593564
C         6.99832322167928    1.68951741533984    6.11310840977737
H         7.57456103358064    1.98451221088346    5.24845340128114
C         7.60201557204912    1.63910913482163    7.36068665304329
H         8.64623611307408    1.89528490417849    7.46507216955865
C         6.86764883473098    1.26276631327786    8.47431857963960
H         7.33936091783503    1.22678278742375    9.44530293879698
C         5.53126760922022    0.93713544142600    8.34261229428987
H         4.93759874294287    0.64819057479366    9.19761728075850
C         2.32525392015402   -4.05893034666535    7.23121507050901
H         2.15824792841646   -3.98999254633789    6.15806911947618
H         1.74639754087815   -4.88863575172832    7.63240004530120
H         3.37875338086725   -4.25489934217231    7.41982814105899
C         1.90733833397322   -2.76259549415734    7.90003103124919
C         2.08112017226602   -2.65894336441802    9.27728764735161
H         2.50205129132865   -3.50500050698534    9.80033998248178
C         1.74134580331165   -1.52224292144367   10.02797391267554
C         1.99373663820462   -1.58680552650641   11.52466489031902
H         1.68100550734696   -0.65233946883378   11.98423377181961
H         3.05242579971180   -1.74964060256496   11.71487305456954
H         1.43546016605668   -2.41253621098608   11.96039633575733

