72
CSD_code = FIJBOQ | q = 1 | S = 0 | Stoichiometry = C31H31ClN5O2RuS(1+) | MND = 6
Ru        9.73348296714720    2.72592435432296    0.43304162987118
Cl        8.29215394292340    1.05431770524527    1.33500358347839
S         8.32458508455859    2.49640120087304   -1.35883605062489
O         5.69678547248166    4.52404916135547    3.90800396564244
O         8.73734984953593    3.26272209520944   -2.53775436104887
N        11.00852972652994    1.35940147669538   -0.30341707498150
N        11.04214948370345    4.08171014372955   -0.38587320612516
N        11.00613480885175    2.81124674334379    1.98321860340399
N         8.75942337889188    4.50900034997277    1.01791770726844
N         7.44995265942713    3.66633025590525    2.70907473121909
C        11.15758872580171    0.08369228334975    0.04726970647587
C        12.20617117072016   -0.69641447379181   -0.40667464406295
C        13.14773271550370   -0.12628744567269   -1.24896233764565
C        12.99940475714082    1.20683560844216   -1.60396237504713
C        11.91815063324634    1.92325913231333   -1.11733010301097
C        11.65272802087796    3.35542903225833   -1.50487317614394
C        12.04101539094839    4.51199813789038    0.61099093381360
C        12.07489898007723    3.60172264956846    1.81204004703147
C        13.12789656988480    3.61609480196719    2.71423800966531
C        13.07651510832661    2.79340238218344    3.82839616782858
C        11.96937094563958    1.97378594448787    3.99509047205773
C        10.96255425167153    2.00724866588126    3.04896276602079
C        10.21129002868850    5.21306030262223   -0.80321376059671
C         9.22467439647159    5.54368424689598    0.28994648173573
C         8.80340832932863    6.84138067265702    0.49457938929931
C         7.85889893381240    7.09377533768659    1.48657785104550
C         7.38558023951510    6.04875205085288    2.24142645060602
C         7.85735432337884    4.74930555226167    1.98886493879519
C         6.41557109061666    3.59076467798409    3.64187262314374
C         6.34062326092001    2.24376820403285    4.25331962377469
C         7.50381281959697    1.66148823908560    4.70702208263209
C         7.48688565619021    0.40621870136366    5.32205410513711
C         6.30637887177283   -0.26832232266980    5.46875448841324
C         5.09260348468535    0.29344784578861    5.02473126161508
C         3.86809820256674   -0.39058359007925    5.17932088846887
C         2.69682408069020    0.16714892617660    4.75143496937952
C         2.70054191939582    1.43312027723330    4.14648232711303
C         3.87011558384717    2.12110329748986    3.97599204742792
C         5.09539437756178    1.57783828004266    4.41459139962428
C         8.04952826147967    0.80158040195301   -1.94593738911822
C         6.59532541634752    2.92988651425198   -1.02165088046131
H        10.39743715408683   -0.32017702809427    0.70431080106976
H        12.27888973927880   -1.72776398838719   -0.10373485886157
H        13.97938598317538   -0.70219447193965   -1.62177979388774
H        13.71090385958100    1.68591729969964   -2.25779904152134
H        10.92779912477702    3.34168730771767   -2.32991191064632
H        12.56868714352337    3.84163601347545   -1.86238041912735
H        13.03900499066140    4.57785946771706    0.16131901009885
H        11.77600481932725    5.51366027101377    0.97003813871949
H        13.97157983221109    4.26621390540206    2.54413546096997
H        13.88199856917787    2.79116183737732    4.54493962206836
H        11.88804124667401    1.31510150647857    4.84389691294943
H        10.08885513813539    1.37088547194838    3.12667779328339
H        10.81449858414221    6.09158837239491   -1.06222275771964
H         9.64228066970037    4.91615730517097   -1.69309857452757
H         7.84985721763192    2.76449390503132    2.41809718101590
H         9.19725624133157    7.63986626765589   -0.11259342361974
H         7.50822136866172    8.09788395470228    1.66267775012751
H         6.65345561673389    6.19274192635711    3.01770100072284
H         8.43864596485940    2.19849816084068    4.62590729266677
H         8.41110712931063   -0.02285078965194    5.67902291181198
H         6.28521292029408   -1.24187213336261    5.93615076114671
H         3.87663510350832   -1.36539085154314    5.64461329885055
H         1.76285028376908   -0.35975146814213    4.87561025603731
H         1.76752511961054    1.86351383508138    3.81494818207787
H         3.86036121516995    3.09832827319520    3.52001867831100
H         7.61220559132944    0.22252048754525   -1.14071775140702
H         7.39080242741343    0.84936930473365   -2.80528161777402
H         9.00919811910987    0.38422505133228   -2.23646266469461
H         6.55508634657592    3.98062985018754   -0.75003738961668
H         6.01096376104743    2.75617104308118   -1.91785421905429
H         6.25376479843510    2.31130209181579   -0.19822452258457

