63
CSD_code = FIJDOT | q = 1 | S = 0 | Stoichiometry = C29H27N4O2Pd(1+) | MND = 4
Pd        9.62178913089341    3.29081680103013   16.82194982845051
C         8.48153538910842    1.72905961424628   16.37677143961103
C         7.96693045198434    0.52513792141193   18.46071221649651
H         8.68069187841335    1.24535841454667   18.87618333698767
H         8.30820530113949   -0.48513074755619   18.68823153934249
H         6.98421826756281    0.67307867941395   18.91280317153585
C         7.30924896141367   -0.14866758046138   16.13412608188975
C         6.58951523793957   -1.32151721591133   16.30776173330325
H         6.39765445983675   -1.72667479507684   17.28778446290613
C         6.12517930729839   -1.94687491534938   15.16697979985315
H         5.56094489592938   -2.86092474285079   15.25898224416055
C         6.36590833641535   -1.42440993873412   13.89598691356869
H         5.98187534653064   -1.94639491177974   13.03428361307443
C         7.08150182415384   -0.25682874708484   13.71330061863947
H         7.25814503151530    0.13936776738590   12.72638059475839
C         7.55433096804536    0.37752962653316   14.85247064201982
C         8.88488271063659    2.42277798260301   14.07999655126260
H         8.57606726561764    2.10374723672406   13.07931927407797
C         8.42355070183718    3.86304908577577   14.33037319381206
C         7.08595416277229    4.10763941808048   14.64926156148310
H         6.39512901429719    3.28202735919279   14.75543651942296
C         6.62591778380365    5.40788206655348   14.78502568790032
H         5.58911110228135    5.58655024076225   15.02430864717802
C         7.48847605344104    6.47796702135345   14.60546054340863
H         7.12672643191512    7.48807950675131   14.71439982959161
C         8.81794515620819    6.24373350569136   14.29163002046744
H         9.49342950581857    7.07270438261233   14.15191360602244
C         9.28953495864811    4.94642500300532   14.15176723792003
H        10.31859135906736    4.78931361919865   13.85512045974843
C        10.39201238655160    2.30105722267176   14.23437973357665
C        11.23615722433598    1.92965089504887   13.20091586428360
H        10.83737627270419    1.72073501664759   12.22080888518035
C        12.60034115299897    1.84799337364238   13.44636000562067
H        13.27941616287193    1.57030164687572   12.65574025322233
C        13.07234593793531    2.13249387087691   14.71838505298380
H        14.12470612939543    2.08347650105775   14.94520154210991
C        12.16726718075188    2.49282375451346   15.70453654982406
H        12.48926104895795    2.74322797509109   16.71103398278702
C        10.26498509832413    5.85768352067203   17.70012116923352
C         8.70757476341081    5.64419371936554   17.86411635344766
H         8.26204149053589    5.74996337417407   16.86395071533643
C         8.06510355110549    6.66542099763033   18.81420497179628
H         7.33477231066336    6.17148673474140   19.46143295319610
H         8.84727083851806    7.10742350078988   19.43597746939660
C         7.39034038901023    7.74557175278310   18.01169592358445
C         6.02138983079911    7.71642678643247   17.78497214729105
H         5.41600645439347    6.94023152131868   18.23401945317660
C         5.41932698002243    8.68614096259917   17.00111677694050
H         4.35177070639025    8.66080697607483   16.83958455048465
C         6.18419128969219    9.68924166321975   16.43103241659660
H         5.71430436949282   10.44748319559734   15.82287219171458
C         7.55233421103932    9.72069744002582   16.64981040128502
H         8.15111435977778   10.50467482663554   16.21129717718094
C         8.15343206066427    8.75289947740039   17.43439289637220
H         9.21867827097682    8.76774853365723   17.60790416759144
N         7.90828468666892    0.71371819622213   17.03471146459450
N         8.27803917226388    1.53407167127737   15.05709193022929
N        10.86280569687665    2.57141390797268   15.45747479999909
N         8.51095544278619    4.23204080540603   18.28648647737959
H         7.51053892411403    4.05057337851903   18.40852677785368
H         8.95952631497331    4.10955504986651   19.20290561903501
O        10.85996187980215    4.85502053796259   17.18233315042427
O        10.77577641657695    6.89222955509971   18.05368480724894

