25
CSD_code = FIJDAD | q = 0 | S = 0 | Stoichiometry = C6H10Cl2N2S4Zn | MND = 4
Zn        2.24420793945971    2.42829093474455    0.04372111399719
Cl        1.60020022126414    1.35574146131858   -1.75085407856252
Cl        2.12778022074255    4.70696399820062    0.04710156690166
S         0.90666188662953    1.28114501127376    1.95887147277318
S         2.25270001626783   -0.87816249375823    0.29489065644542
S         4.56310889363554    1.89836695139439    1.15651467927241
S         6.49223939311570    3.31305440439321    2.90673028437887
N         1.15721876983607   -1.24674657502959    2.57160708931931
N         4.58906347527006    4.51806502004760    1.69417759532969
C         1.39957616604803   -0.28111764429558    1.68054697765792
C         2.54726091971262   -2.49418613523670    1.12960034893778
C         1.45973614128900   -2.60629955647143    2.18713384909857
C         5.09564575109126    3.31707004419133    1.84947366781680
C         6.52683341261252    5.14483540556387    2.94889633648058
C         5.14008527154818    5.58846441615795    2.48876776266489
H         3.54473291735347   -2.45333294556029    1.56535737008932
H         2.50225085934467   -3.28151638822217    0.38339815824522
H         1.80120684363810   -3.17112273497668    3.05688991453418
H         0.56285489075922   -3.09051604295417    1.77842677557462
H         0.58954413478431   -1.04146769024903    3.37999917823746
H         7.31220661742553    5.47035711054292    2.26718512062850
H         6.76367644475269    5.46725393164875    3.95883968648678
H         5.19036713802227    6.49621363034478    1.88455583812920
H         4.48093347806932    5.77733445024737    3.34526578783971
H         3.72680819732645    4.68391143667182    1.12350284773862

