76
CSD_code = FIJFOW | q = 0 | S = 0 | Stoichiometry = C32H41CuN2 | MND = 2
Cu        3.91413394228470    3.99141205439539    6.90546064739127
N         3.62037547624527    1.34775344741337    8.03153142730671
N         3.86505538387774    1.35391679378645    5.72730904723539
C         3.78548653673833    2.01715754650889    6.88667472999291
C         3.27272476916343   -0.05925202741861    8.23145100847428
H         2.86526904604977   -0.13062743543195    9.24327599046544
H         4.15903584212039   -0.70205219114251    8.20193650285349
C         2.22511945313591   -0.53065531707034    7.22608502028271
H         1.51179513427024    0.28110033031731    7.07227883573760
H         1.67448015985759   -1.37620752569768    7.64211102937090
C         2.84800497859300   -0.93491004741730    5.88862638188242
H         2.10237076072827   -0.84991356160662    5.09596341094697
H         3.17074546627090   -1.97762449201424    5.92443768164000
C         4.06911130935262   -0.07970945543487    5.55461734132058
H         4.92112263285934   -0.39150464589620    6.16727013956862
H         4.33983351109767   -0.24471786818946    4.50954209666861
C         3.70302182881050    2.09639517048344    9.25137639345876
C         2.53830702228349    2.52242346825825    9.89264817818999
C         2.65088631348651    3.17525408886777   11.10889639186982
H         1.75522742767497    3.51646634988152   11.60776437502215
C         3.88663766206854    3.41760111059636   11.69366252409815
C         5.02890665511164    2.99907050297079   11.02873761692675
H         5.99911714217547    3.19500844600163   11.46244687913163
C         4.95696996499237    2.33658757875934    9.81306473033380
C         1.19267747752928    2.30967316126041    9.26763475183660
H         0.85749279660840    1.27969552431808    9.39443810887239
H         1.23411959062185    2.52896292689593    8.20157359229231
H         0.45599201746217    2.96315892964311    9.72749114860823
C         3.97235770539006    4.14684591103383   12.99881761714881
H         3.29541034976126    3.70857710664233   13.73009304656546
H         3.68446889085265    5.18851041971908   12.85983573100927
H         4.98397411141219    4.12054934893434   13.39522153103470
C         6.20514528914095    1.92680316106184    9.09193510887805
H         7.07566190782213    2.04968816687521    9.73043720278814
H         6.33464812264622    2.55503022832179    8.20889624772866
H         6.15485731111544    0.88868714856725    8.76646354262219
C         3.97762077864104    2.11851365807884    4.52177187817840
C         5.23226251244851    2.29617309037465    3.93417456863405
C         5.31301351307699    2.96663190822764    2.72506546226838
H         6.28168745117957    3.11244520757357    2.26889341808693
C         4.18237266903368    3.46784814358949    2.09481790437283
C         2.95148961831706    3.29934025058297    2.71030042294614
H         2.06419056614796    3.70303095269882    2.24388565247341
C         2.82873242693514    2.62943541227979    3.91821274234549
C         6.47790834922687    1.79682319528935    4.60395208313403
H         6.40145092855943    1.90421654420864    5.68455415290053
H         7.34073957796314    2.36155887922404    4.26010564137173
H         6.65174946490052    0.74465064299309    4.37493525207296
C         4.30561944272972    4.18100786382358    0.78355887727530
H         5.07443986249872    4.94924788240728    0.84134179269666
H         3.36486878791354    4.64760317831083    0.50350461325197
H         4.59177472660787    3.48029208151579   -0.00100474328118
C         1.49237409582441    2.49719334335186    4.58173167865543
H         1.30208180737890    1.47009242588352    4.88762477451403
H         0.69794996894667    2.81616772050711    3.91234981257131
H         1.46807291777134    3.12879437311927    5.47169653711334
C         4.01499609346438    5.97127734413544    6.90394231469714
C         4.53070641741136    6.70195636814279    5.81452354284590
C         4.57688691071915    8.08866727223170    5.80528557511194
H         4.97989889789740    8.60377976792278    4.94097839018479
C         4.11521431887229    8.83113114859622    6.87861227168033
C         3.60953367830891    8.14141854561161    7.96877752489014
H         3.24462815432940    8.69987395546404    8.82302434337962
C         3.55957065731421    6.75590634010037    7.98390581930843
C         5.03752190719950    5.96955480182988    4.59841874905747
H         5.59808075079304    6.63486403736757    3.94368719458989
H         4.20292150599652    5.55501514812372    4.03163435365160
H         5.68092852531831    5.13818912024263    4.88427289960489
C         4.18165366702141   10.33143127702703    6.87452678577562
H         3.32787244794578   10.75910032513922    7.39796088042577
H         4.19780839082856   10.71616279104432    5.85638238733303
H         5.08833994581401   10.67140781391255    7.37858895740452
C         3.00456265483592    6.07679648820379    9.21002879763250
H         2.62283157917215    6.80448427195768    9.92458103938395
H         3.77928649449407    5.48545822700304    9.69915528987194
H         2.19611354655716    5.39660384770600    8.94243435201577

