78
CSD_code = FIJGIR | q = 0 | S = 0 | Stoichiometry = C36H39CuN2 | MND = 2
Cu        1.55637564904039   14.00510842935840    2.83335892664929
N         1.47583447806513   15.49287215148870    5.26895538752931
N         2.39061017602836   16.69777446493450    3.55749374565562
C         1.87455440810370   15.55018700541594    3.99854429639256
C         1.51502941248430   16.61138423341573    6.19629113548142
H         2.44360071098898   16.58612438843569    6.77986162586319
H         0.67793431473548   16.50864845595975    6.89256978732313
C         1.42620943604652   17.91741445022581    5.41789253495063
H         1.54535755820766   18.77094307624439    6.08472950585665
H         0.45176431971290   17.98925982357219    4.93031962415545
C         2.52252292681316   17.90027736490425    4.36099493776319
H         2.45389127720903   18.76882742775086    3.70128818948480
H         3.50763172600466   17.92394969813179    4.84476778099188
C         2.81697824636435   16.78249385027478    2.19545490702392
C         1.93074983309307   17.25763814555773    1.22892753350891
C         2.37018671208406   17.35642248137544   -0.08181284855260
H         1.68883027051551   17.71758453067804   -0.83878146794676
C         3.65898505364107   16.99218733963542   -0.44385641584891
C         4.51617316186273   16.51128200690551    0.53603062249504
H         5.51759047334149   16.21123266547760    0.26261152290324
C         4.11445022817632   16.39883499464811    1.85720231741969
C         5.03702830957603   15.84315302619520    2.89938227896000
H         4.59153575907883   14.95560813863042    3.34988198162877
H         5.22209424561206   16.57008012033832    3.68968796213243
H         5.98984617411140   15.56511774389603    2.45774257326966
C         0.52521487526763   17.62401166262449    1.59859025273802
H         0.06759801597051   16.81779567952076    2.17114217425611
H        -0.06998469550891   17.79595065475546    0.70616013180156
H         0.50113647374343   18.53006268224146    2.20480576825422
C         4.10540669064499   17.07822434926804   -1.87083605170632
H         5.17133593526335   17.28456620780377   -1.93330189764745
H         3.56136553733620   17.85452853644631   -2.40348367779976
H         3.91676129718484   16.12870117459115   -2.37239223421093
C         0.95831408924528   14.26451193507628    5.79041788013944
C        -0.38588154402540   13.94125122426988    5.59483108115292
C        -0.87637977177870   12.77424976920699    6.15537667166596
H        -1.91167144649722   12.51020554773940    5.99797830282669
C        -0.06811487437633   11.93383169537211    6.90837726186550
C         1.26736846026284   12.26702270523401    7.06934495016133
H         1.91532761275876   11.61258590232471    7.63503771878866
C         1.79886460147645   13.42297534979271    6.51675975251797
C        -1.27075871894915   14.81681605441917    4.76216043682661
H        -1.17364750291972   15.86534270325106    5.04036075779934
H        -2.31031057439554   14.51990287470966    4.86849587305908
H        -0.99115775870103   14.71471816988144    3.71188184489161
C         3.25172324650056   13.74871609193634    6.70073814131304
H         3.82383397783092   12.83872532826048    6.86263297602778
H         3.39435817486426   14.39295258596282    7.56961417436441
H         3.64979074535641   14.25760580389342    5.82485968032465
C        -0.64174940464925   10.70787517714632    7.54763465658697
H         0.14274147538281   10.00802802367745    7.82351414983748
H        -1.33408101630422   10.21629210138461    6.86916388351095
H        -1.18908934984080   10.98096143800492    8.45078591589472
C         0.93759538429787   12.48547539454863    1.76807169358841
C         0.18455513942544   11.46420773754390    2.53147203967179
C         0.79648404212278   10.71155460063739    3.53546262823735
H         1.85347076802189   10.84938912498207    3.72520833147694
C         0.08079141176109    9.78447363682927    4.26456166503528
H         0.58161776609468    9.19230774852804    5.01870377390774
C        -1.27472585287843    9.61065428663874    4.03512711286454
H        -1.83647986864881    8.88299605654192    4.60527896391338
C        -1.90363977334485   10.37348063167194    3.06532926528033
H        -2.96269156521282   10.24723048093899    2.88285652695519
C        -1.18300981544955   11.28445770921161    2.31886612601550
H        -1.67458550685253   11.86835539628665    1.55252731936283
C         1.04931855777603   12.34030902618617    0.43180526588672
H         1.51193728358082   13.13858942922506   -0.14470448556078
C         0.58788537407472   11.22508922479952   -0.39578497996755
C         0.15792318130363   11.48666520865568   -1.69868892998006
H         0.17289168516172   12.50622206487589   -2.06196341238889
C        -0.29819322619306   10.47392418258324   -2.51895596381748
H        -0.63639127683945   10.70188247999818   -3.52091597544218
C        -0.31980007246741    9.16648613192514   -2.06216830264448
H        -0.67559910064287    8.37145697113439   -2.70230772175398
C         0.12959839289026    8.88636752287145   -0.78249766906176
H         0.13193191459439    7.86605759801750   -0.42404503569820
C         0.58050323986610    9.90019353115563    0.04068262096400
H         0.94563250577001    9.66205638166826    1.02749012263840

