63
CSD_code = FIJHAK | q = 0 | S = 0 | Stoichiometry = C19H37MoNO3P2 | MND = 6
C         1.12072795343586   -1.25655627611426   11.19234776023716
H         0.62923431542721   -2.08158837943358   10.66817268863464
H         0.37380110519642   -0.71406488803522   11.77531139071287
C         1.78829638893089   -0.34095350359292   10.17576273913235
H         1.03173207908436    0.13916220746570    9.53112317401325
H         2.32159553481843    0.45265442523298   10.70996091655857
C         3.65564605884812   -0.21594555689575    8.62176342797552
H         3.09739109927970    0.61976468299801    8.16422843528653
H         4.10330847175059   -0.80807261035056    7.81890700347874
C         4.77024691586547    0.33027521361710    9.51161680845651
H         4.35094533914887    0.98432103830084   10.28361805092326
H         5.47134000912955    0.91940667848520    8.91661166153010
C         1.58111373098267   -3.18416670965364   13.34685670941138
H         1.38765777161662   -2.66422987940337   14.29360008826037
C         2.51813748389935   -4.35667440317975   13.62379510820162
H         2.09233411027974   -5.01598487959453   14.37907822600022
H         3.48766413023004   -4.00756433346018   13.97520320639449
H         2.67775143493637   -4.93090550521945   12.71245293288321
C         0.24937093128323   -3.69214293763033   12.80319474771133
H         0.38164868374707   -4.18879622366673   11.84545380972496
H        -0.47526127716228   -2.88797459139549   12.69162922631191
H        -0.16450776411248   -4.42166766892251   13.49864366421655
C         2.80675498600206   -0.57458498689779   13.41655286232299
H         3.33956578431116    0.17351733309766   12.81171786384115
C         3.76886060955760   -1.08669540420039   14.48665657807817
H         4.23957617002140   -0.25804160809756   15.01471000127071
H         4.54855120381676   -1.69427415398577   14.02694255327799
H         3.24486545223549   -1.69750661055161   15.21858059302521
C         1.59128142223049    0.10408073117907   14.04319208712369
H         0.89932502515976   -0.61961087783827   14.46902040282960
H         1.05261064973078    0.71239996784309   13.31945979372761
H         1.92155427198632    0.76181058867107   14.84663097817995
C         7.13733142659334   -1.39026118298050    9.36581109904675
H         7.87507700234854   -0.63274141457945    9.65866364178009
C         6.92258052454241   -1.29159847118782    7.85843766228436
H         7.84893312913862   -1.55142725820759    7.34732600255833
H         6.64296303331966   -0.28774401742636    7.54500477682057
H         6.15885080347372   -1.99191414905152    7.53015463621315
C         7.67734529567317   -2.77539417159657    9.71386703479908
H         6.98989118717209   -3.54292412596259    9.36280506484341
H         7.79301902563624   -2.90298793879252   10.78704741487016
H         8.64490514173905   -2.93514081155414    9.23946669118566
C         6.29248232091110   -0.17467650619844   11.85422101060176
H         5.38809246675727    0.11447432516200   12.40590944128397
C         7.08832664291533   -1.13421279469521   12.73472300306468
H         8.08463104128498   -1.29378644342223   12.32797510013090
H         6.58019086844679   -2.09770030570370   12.79988390662813
H         7.19804673667446   -0.72990241085742   13.74032181382376
C         7.09542812777152    1.09276198527304   11.57062819074804
H         7.32131496059290    1.58958705060066   12.51371847571471
H         6.54512816322356    1.79223088119488   10.94546909350518
H         8.04250891687512    0.86771798224821   11.08602924460826
C         2.50881931293693   -4.08240604921051   10.15196639771863
C         4.91532481837901   -4.10027478772000   11.38824959967917
C         4.54790530260325   -3.52086167176002    8.79503289692670
Mo        3.88941544983797   -2.77083948072026   10.44390706946374
N         2.75403208815020   -1.08751608495267    9.37222038412648
H         2.22848403644205   -1.65089341181067    8.70583982379130
O         1.75978004024860   -4.90558106381114    9.86202888581830
O         5.53898185987038   -4.90461697395480   11.91856682749398
O         4.77367269057143   -4.08490972817369    7.81885298929285
P         2.47386493329606   -1.98583689178535   12.22678950699972
P         5.59755257011008   -1.08801495736161   10.37748682451379

