38
CSD_code = FIJPAR | q = 0 | S = 0 | Stoichiometry = C14H15BClIrN6 | MND = 6
Ir        6.01284629430809    2.43499342337381    5.90562199755641
Cl        3.74360281665565    2.45000644605681    6.31694176744349
N         7.94929314853468    2.53452136046716    5.22537593803830
N         8.21084623764387    2.93894415957788    3.98123752708414
N         5.58781482532718    1.60606265103610    3.93910846911542
N         6.14832269970798    2.15694900024179    2.85928824643766
N         5.77622591048404    4.33411481076911    4.86847960727834
N         6.30870809877203    4.48796785198968    3.65329756814270
C         9.10558092696168    2.25296088525756    5.81880876674928
H         9.13531371007624    1.90652645647205    6.83352261028637
C        10.14976425547747    2.48283123668410    4.92889347449508
H        11.19732590212901    2.35132192711721    5.10232802619997
C         9.53164600508895    2.91792865438577    3.77352260597728
H         9.94866292556680    3.20892451688326    2.83122048223684
C         4.77291513801959    0.64770307594328    3.52939607919606
H         4.20087377307880    0.07372285672616    4.23131898262285
C         4.80359118239666    0.56735861508125    2.13803865248363
H         4.25651366794258   -0.10407262894725    1.50927313840478
C         5.69285783653204    1.54947929469133    1.75497591598399
H         6.02383939020914    1.84920585440161    0.78122869962189
C         5.10267472738887    5.43519606182282    5.15886493597936
H         4.57727049609326    5.53044817338190    6.08851770191023
C         5.19990006308543    6.33862157598517    4.10166775370118
H         4.76558357784786    7.31436540583731    4.03271096052705
C         5.97681178927582    5.69075723387966    3.16426629295013
H         6.30818673228475    6.00543853418724    2.19537290079844
C         6.16911757019810    0.67055682541766    6.78100108360065
H         6.20454791494341   -0.19819384373876    6.11903083676696
C         6.13276329719649    0.36401078256187    8.11538239417747
H         6.10411681804483   -0.67519163924326    8.42651274731346
C         6.15617249215512    1.32133793544795    9.13217571701188
H         6.11456292969869    0.97352054559549   10.15669955189841
C         6.28805338234939    2.69444948719427    8.91275664478222
H         6.36956366611766    3.32185510141735    9.79439850469275
C         6.34315188937877    3.26441834078270    7.66852723078350
H         6.50777393919128    4.34471326817643    7.67387974958600
B         7.09697084570302    3.35126877111400    2.99625063514388
H         7.54913312413499    3.67547699197168    1.95330580302234

