47
CSD_code = FIJTAU | q = 0 | S = 0 | Stoichiometry = C12H24I2N6P2Pd | MND = 4
I         1.52006911835778   -0.24986358373887   -2.07227972950820
Pd       -0.00037401349416   -0.00171512766107    0.00266821143879
P         0.94926816807167    1.99541422707714    0.53469456328785
N         2.72256454398958    4.05488261497132    0.13675567876200
N         2.25952686759842    3.46469636925643    2.44370453080301
C         2.30216406709455    2.80417930152080   -0.45564772034095
H         3.16354051101617    2.12681572559451   -0.51774208716119
H         1.94546592461812    2.98929572092084   -1.47709446852808
N         0.59138428239165    4.64760215897256    1.13122916603238
C         3.26304758941277    3.86769005579556    1.47242826995870
H         3.69256657331777    4.81843531341675    1.80242275560109
H         4.05352105712901    3.11295146299997    1.43700959785668
C         1.17923424770317    4.43836049212994    2.44484398951356
H         1.58547268777522    5.39394874229267    2.78997066234398
H         0.40045447638007    4.10898823798798    3.13775533456420
C        -0.15132015947116    3.48947094813781    0.68449164488358
H        -0.59961996326325    3.70500291335574   -0.29524822333258
H        -0.95952204200315    3.28582982262444    1.39808165187384
C         1.63836191542316    5.02033698375558    0.19452625627214
H         2.05404213767781    5.98075363190309    0.51407902526950
H         1.20532825891071    5.13390778267515   -0.80313111656437
C         1.77302083792508    2.12448448367593    2.19863916091076
H         1.06052779671711    1.85273007532618    2.98774840906731
H         2.61738737837860    1.42207573506643    2.23652302252399
I        -1.52014692574390    0.25635548108282    2.07679221882406
P        -0.94931321682779   -1.99673266994569   -0.53631471666887
N        -2.72237180794139   -4.05485729275550   -0.13684645652483
N        -2.25982319900619   -3.46492884254589   -2.44412223376850
C        -2.30200666278405   -2.80421783357251    0.45548091278400
H        -3.16339492804081   -2.12686576293437    0.51763839801928
H        -1.94518052517903   -2.98932163167842    1.47690075160393
N        -0.59126678073907   -4.64787667604802   -1.13148815727408
C        -3.26305176188834   -3.86778344214848   -1.47247613318812
H        -3.69259580018274   -4.81858920265892   -1.80225378015830
H        -4.05357216572249   -3.11309375932692   -1.43698752731694
C        -1.17932223738092   -4.43841462585644   -2.44501718200211
H        -1.58551703939238   -5.39402682353040   -2.79010194453126
H        -0.40059708895348   -4.10903980482688   -3.13798555445956
C         0.15197189713922   -3.49018736182239   -0.68482410396281
H         0.60002623418361   -3.70554126597238    0.29508457400593
H         0.96007454522450   -3.28651166112511   -1.39846062857881
C        -1.63821624541476   -5.02037796783781   -0.19465607464254
H        -2.05401565371275   -5.98077458930302   -0.51410827699585
H        -1.20511613787634   -5.13395098496569    0.80297658500418
C        -1.77360223887038   -2.12457223973390   -2.19976213683728
H        -1.06107809174866   -1.85281268842824   -2.98879084310385
H        -2.61799643079872   -1.42215244212374   -2.23710627575542

