43
CSD_code = FIJTOH | q = 1 | S = 0 | Stoichiometry = C12H24AgS6(1+) | MND = 6
Ag       -0.00000000000004   -0.00000000000007   -0.00000000000001
S        -1.31587636289755    1.94902917132419    1.48714317526109
S         1.04964335828213   -0.44573631671048    2.53926791759108
S        -2.03219845959790   -1.49049670907241    1.18270045857749
C        -0.63931408302698    1.79761140489186    3.18641551871940
C         0.75711401483711    1.20726383965820    3.26921158745851
C        -0.18838430040553   -1.49442633738698    3.39714123950198
C        -1.05844428275024   -2.33685622430005    2.48136785275757
C        -3.02253793872875   -0.27881522544033    2.14144383142276
C        -2.95626667632716    1.14925410237374    1.62998183120025
H        -0.59699438212362    2.81133368546692    3.58777947859046
H        -1.36114916466251    1.23082238071544    3.77024699659979
H         1.05676113710492    1.14583198242327    4.31694880171293
H         1.46829852079482    1.83816700138190    2.73544502757981
H         0.37897817140316   -2.17337429447159    4.03568491360022
H        -0.77675976194794   -0.83935321088097    4.03584965871713
H        -1.76783946584962   -2.90446966033016    3.08625113801326
H        -0.44483478283454   -3.03385195060594    1.91013718356713
H        -4.05960644308852   -0.61048833353549    2.07070743521374
H        -2.71031294193412   -0.35886365033973    3.18035012532600
H        -3.56210564269197    1.78787110189614    2.27530039872354
H        -3.34419055170714    1.20641678847748    0.61263767091804
S         1.31587636289268   -1.94902917132587   -1.48714317526330
S        -1.04964335828099    0.44573631671584   -2.53926791759066
S         2.03219845960157    1.49049670906859   -1.18270045857573
C         0.63931408302258   -1.79761140488994   -3.18641551872145
C         2.95626667632428   -1.14925410237932   -1.62998183120145
C        -0.75711401484005   -1.20726383965272   -3.26921158745995
C         0.18838430040932    1.49442633739024   -3.39714123950029
C         1.05844428275603    2.33685622430013   -2.48136785275486
C         3.02253793872943    0.27881522543516   -2.14144383142235
H         0.59699438211677   -2.81133368546443   -3.58777947859366
H         1.36114916465953   -1.23082238071458   -3.77024699660116
H         3.56210564268758   -1.78787110190249   -2.27530039872542
H         3.34419055170411   -1.20641678848515   -0.61263767091928
H        -1.05676113710767   -1.14583198241589   -4.31694880171431
H        -1.46829852079934   -1.83816700137531   -2.73544502758202
H        -0.37897817139766    2.17337429447694   -4.03568491359784
H         0.77675976195020    0.83935321088348   -4.03584965871612
H         1.76783946585681    2.90446966032926   -3.08625113800985
H         0.44483478284198    3.03385195060693   -1.91013718356360
H         4.05960644309001    0.61048833352771   -2.07070743521294
H         2.71031294193499    0.35886365033649   -3.18035012532552

