123
CSD_code = FIKBEI | q = 0 | S = 0 | Stoichiometry = C52H62CdN4O4 | MND = 8
C         2.94166661562662   14.47834115788486   21.12250600562479
H         3.28403208511520   15.01168427683852   20.24655048286451
C         1.61442803463011   14.09692971968532   21.26576558262028
H         0.89055407688213   14.33251320129010   20.50152567005751
C         1.24635306600835   13.42210546440787   22.41719735264529
H         0.22119715629401   13.12130972217386   22.57947874097183
C         2.21366561548552   13.14268811144661   23.36747196311968
H         1.94728798606492   12.63146617840674   24.27920294793376
C         3.52004827540976   13.57182289216864   23.13959135457968
C         4.60699409264428   13.35770104828859   24.11150553076754
C         4.58119519253400   12.32668599502841   25.05194398360140
H         3.76323098254199   11.62347820772299   25.07635047693697
C         5.63271983256833   12.20714390062241   25.94280281846248
H         5.63524941665592   11.42022532169690   26.68345787305646
C         6.67892017028312   13.11314387080117   25.86772863229177
H         7.51140015802155   13.05805027374800   26.55149937689701
C         6.63203925729098   14.09269439414298   24.88647188010455
H         7.42228531258737   14.82233684725423   24.77317399809792
C         6.79507603966736   14.78024162728760   20.49655304112530
H         5.94365105922442   14.12455596678519   20.61834143532225
C         7.61779822341847   14.70775830449705   19.38191382440005
H         7.42186553767981   13.99269205543866   18.59839438922234
C         8.69791844717583   15.57283337747726   19.30465145535772
H         9.37137397070363   15.54214082543815   18.46010657505150
C         8.89998298740122   16.48090667098048   20.32837864456280
H         9.74404813971505   17.15247227562422   20.30245820074195
C         8.00661179381160   16.49973027797855   21.40066741762421
C         8.12996399005381   17.45151329016161   22.51902250788730
C         8.78285925710666   18.67656563839120   22.39286975132078
H         9.23080218849810   18.97389834385007   21.45778102244783
C         8.81080677073756   19.53120724899274   23.48171482729172
H         9.28881746087009   20.49715082855213   23.40312524750123
C         8.21026416130084   19.13005998974270   24.66286274683100
H         8.20954821459742   19.76741599414206   25.53308969635832
C         7.59303208936821   17.88691756919417   24.69789571024339
H         7.10721546740442   17.52334164556714   25.59274832775753
C         4.67587168807988   18.25270018881391   21.34685441893172
C         4.17545572210300   19.42950205658742   20.54584721112880
C         2.81600687100204   19.74081365699313   20.56911975335727
C         2.36711739148570   20.81768344383608   19.81883280742838
H         1.31712972273757   21.06391328291354   19.82773503884085
C         3.23639746708562   21.58087248720960   19.05375119701277
C         4.58138105581632   21.24496949603282   19.03943177920838
H         5.25614384956853   21.83133853183503   18.43373087486013
C         5.06803404918543   20.17809567824223   19.78126422727207
C         1.85616297618483   18.87203541736606   21.34602580818291
H         2.40335679083255   18.39220998095130   22.16354630021407
C         1.34517755752972   17.76361586892584   20.42070755882430
H         0.68066134238030   17.09959612081970   20.96906738764176
H         2.18761364278573   17.18739924595337   20.04876267435974
H         0.80628677603985   18.18962225699081   19.57474409281549
C         0.68296754409233   19.64860560569166   21.94348948440389
H         0.19044036673359   19.04084044927053   22.69945149055607
H        -0.05294243960162   19.90133669659113   21.18176241683291
H         1.02955214422955   20.56691396453416   22.41071971328849
C         2.73494733568381   22.75098468358780   18.24062382909520
H         3.59111786945794   23.19893565074848   17.72281119675037
C         1.73012598582295   22.28960250162470   17.18304462821782
H         2.17564369207202   21.52849667880180   16.54602016549844
H         1.42317169899357   23.12793846773513   16.56060353931294
H         0.84457030219373   21.86760243418502   17.65131314942589
C         2.11731308346203   23.81801845288776   19.14657001797999
H         2.83816628253409   24.14018286964771   19.89487358291670
H         1.24307862521659   23.42752260618600   19.66110009227168
H         1.81388550948560   24.68355980853984   18.56070947207788
C         6.51942739634633   19.75986553236563   19.72661848742500
H         6.76702655125539   19.31014176574861   20.69394182866541
C         7.48324724720027   20.91911322483568   19.47912313498292
H         7.29475538927639   21.72864137685518   20.18048673509151
H         7.38670052146610   21.30207303735124   18.46581264490242
H         8.51090182423609   20.58334232637653   19.60825035242470
C         6.67597053522839   18.68803904561994   18.64252901923171
H         7.71411123650437   18.36908335859557   18.56238757618445
H         6.35686925549994   19.08035210657148   17.67834364996785
H         6.06294876561401   17.82295249296424   18.88592617207029
C         3.56021126588252   16.89792320914863   24.81994134709294
C         2.61394815473188   17.47195593575576   25.84564034424690
C         2.53568197257462   18.85477033695947   26.00290547502405
C         1.67068116533027   19.36471296017156   26.96174673916299
H         1.59925742028574   20.43318377623207   27.10029867048206
C         0.89474492081755   18.53514064884337   27.75568423299359
C         0.99926810963783   17.16188629617529   27.58703874681187
H         0.40887192535526   16.50903269328192   28.21023446156563
C         1.84876522857126   16.61633161584675   26.63697731714043
C         3.43056765555139   19.75766243152987   25.18861126909928
H         3.67080424413110   19.25246206549652   24.24786115158851
C         2.79503381605750   21.10859667198378   24.86176682847533
H         3.36090365801860   21.59616402527343   24.07082472910839
H         2.79434636851115   21.76489430338247   25.73048033963468
H         1.76983834069822   20.97860307576430   24.52412919860545
C         4.74414204670723   19.95755897850610   25.95067936650693
H         5.42559052349311   20.56686891296898   25.36116411658608
H         5.20733696947683   18.99175353335096   26.13173916526710
H         4.56083317508156   20.44823961218190   26.90628911118653
C        -0.03536557020166   19.12268259159586   28.79093476904221
H         0.05046066141520   20.21433543264347   28.74479870491652
C        -1.48884268708995   18.74889115784504   28.49335382922085
H        -1.76260744126461   19.07100526479010   27.49108297408774
H        -2.15689891106916   19.22743461120674   29.20689026474240
H        -1.63166378979332   17.67303834048550   28.55750849144144
C         0.36245884755506   18.67563157261906   30.19914069450027
H        -0.26947468783098   19.15776327291800   30.94253609943785
H         1.39849559375440   18.93988712662365   30.39965002212448
H         0.25741249822530   17.59887912910062   30.30652074862881
C         2.02586169072995   15.12280743947947   26.48473557033278
H         2.28697078144624   14.92896272882693   25.43889041839488
C         0.77128641834416   14.31781491998690   26.81993926375845
H        -0.08804424567144   14.70559693777007   26.27764600608816
H         0.55763213903139   14.34749910606381   27.88590859854399
H         0.91299306184360   13.27456027568696   26.54211997765834
C         3.20073642562578   14.68051915895931   27.36370933064223
H         4.11145653680428   15.18059529726625   27.04155266124544
H         3.34993719284451   13.60399283327433   27.29470132612521
H         3.01022248604839   14.93999961025826   28.40376982836009
N         3.86461568660802   14.23035338520488   22.03252200728842
N         5.63078824552094   14.20646559093028   24.03438741335723
N         6.98737738294575   15.64516060110468   21.47457640396599
N         7.54747869710572   17.07561887935549   23.65802011640712
O         5.20038724903063   18.47033544561318   22.46301275110646
O         4.56229272878858   17.11039078215066   20.85699412295103
O         4.75550825560760   16.73841194667896   25.14250290666746
O         3.10725956702736   16.58783549902329   23.69461292603741
Cd        5.17734147328990   16.29545461571648   22.92453616125036

