56
CSD_code = FIKBUY | q = 1 | S = 0 | Stoichiometry = C27H21N4O3Zn(1+) | MND = 6
Zn       -1.88888575307358    8.94211292559137    3.51900516743658
O        -0.86832672983972    9.17722788112813    5.24760300933156
O        -2.44033276352818    7.68857666844790    5.03882397049893
O        -3.00608871280893    6.10785695651666    7.01507861045625
N        -3.04878963785256    8.00838379165807    2.06672735204236
N        -0.56983696657209    7.46789994379454    2.82930749843571
N        -1.09345371325898   10.60166639841998    2.57019726412204
N        -3.24127415149466   10.42711725813944    4.11403324929989
C        -4.22713667951828    8.40098700661623    1.61013763322128
H        -4.57568210086804    9.36106076682676    1.96314791663657
C        -4.98359311489293    7.64351921136827    0.73109264634765
H        -5.94114811912274    7.99930749143502    0.38746750952765
C        -4.47423543395019    6.42569345316898    0.30769993792550
H        -5.02608491236766    5.80694716839086   -0.38300799518829
C        -3.24115906573285    6.01407571743066    0.78420466849649
H        -2.82145986426629    5.07898510505113    0.45241641575654
C        -2.55060638940025    6.83014549947757    1.67886519280884
C        -1.23904091285802    6.46902910561219    2.24233803507624
C        -0.71759512219432    5.17843094547423    2.19465014534922
H        -1.27630771616945    4.37040054356181    1.75241467111749
C         0.52469626756507    4.93339533318014    2.75738042754088
H         0.94215654374380    3.93841263050025    2.74165205329297
C         1.21572043478297    5.98209657806924    3.34290529740479
H         2.18599324995556    5.83403493961887    3.78805429860511
C         0.62127684458263    7.23425738311432    3.35907265677043
H         1.10630730619659    8.08250330052152    3.82187267320497
C        -0.09967441071813   10.62176652077810    1.69692631946076
H         0.25616517496331    9.65777366317406    1.36230579793785
C         0.46364244305584   11.79616901846401    1.22547981211295
H         1.27612714467199   11.76713892868183    0.51797210821551
C        -0.04779689588623   12.99980846467659    1.68519219209930
H         0.35454016245721   13.93896219118983    1.33793276147865
C        -1.08760919405881   12.97979486358037    2.59917855419086
H        -1.50831251228696   13.90593806793975    2.95393136958596
C        -1.58620974229256   11.75341881404739    3.03630630249456
C        -2.68120035529280   11.63806326815186    4.01420390273477
C        -3.11285237462603   12.70177363397753    4.80334333520679
H        -2.63494633264462   13.66565022354331    4.74490081855456
C        -4.15208014478017   12.49966412477002    5.69731960134538
H        -4.49520229041587   13.30808077893951    6.32478554094529
C        -4.73746257050748   11.24596453960429    5.77357421278296
H        -5.55178396600325   11.04851135647608    6.45162659487006
C        -4.23984654728575   10.23742105972872    4.96338229270877
H        -4.64894145293747    9.23680999945450    4.99609112705472
C        -1.54955896751499    8.25275615282798    5.75553496104876
C        -1.32772915379174    7.82704490054632    7.14141129071745
C        -2.06976432058852    6.77292788744060    7.70509999439457
C        -1.82256657570694    6.40472296911776    9.02935101765154
H        -2.39902721618350    5.59498796776338    9.44745844197713
C        -0.86832929215403    7.06490055892724    9.77181616818611
H        -0.69172133311803    6.76855023192690   10.79457534202480
C        -0.13264032320560    8.10753768446824    9.21655347220972
H         0.61234011691987    8.61836401542954    9.80598359486422
C        -0.36261701020419    8.48151973756304    7.91281076833988
H         0.19032923205945    9.28650963488230    7.45313176470863
H        -3.04578407897450    6.50594473881711    6.11528023458416

