71
CSD_code = FIKCOT | q = 0 | S = 0 | Stoichiometry = C28H28N2O12Zn | MND = 6
Zn        3.15791437069238   -0.75449330298037    5.96768230042495
O         4.68110901703596    0.43878807464663    5.72965698487486
O         3.47691863837143    2.15260210838932    4.98252961890727
O         9.49713165460538    1.13359279836706   -2.07652664217301
O        11.71525088061449    1.19901037586510   -1.64935339338984
O         4.00033766665406   -1.37147843902233    7.82564630502116
H         4.95545675319970   -1.33825076179386    7.71070855885027
H         3.75305942008688   -2.31844874660337    7.78885169815416
O         2.03848534829417    0.85829932028887    6.78610911397977
H         2.22219327041304    1.05605395521423    7.70834249299989
H         2.42948725504946    1.58334205510936    6.24072605177841
C         4.56952827852593    1.58296860895720    5.20353471941565
C         5.82655254346834    2.27883408559523    4.83805900814672
C         5.80338821251331    3.57422842365265    4.29621428633439
H         4.85494218071345    4.06923978664449    4.16250186184855
C         6.97109218607151    4.18641861110403    3.94362861033101
H         6.99286611222939    5.18198779075603    3.52902403751824
C         8.21323745425552    2.31347589589808    4.62313966373517
H         9.19182984330515    1.86814866415591    4.70673089649100
C         7.07836639505613    1.65721442321372    4.99454103960977
H         7.11881429639261    0.65913918063373    5.39838829855437
C         9.38408764772485    4.16123743704660    3.58469201409403
H        10.19430836805302    4.01659650605116    4.30303074446364
H         9.22449622586054    5.23212666621112    3.44283657688803
C         9.72838023053709    3.49280674584447    2.26758418294185
C         8.92765842671182    3.71545177604509    1.15496988484605
H         8.09226384562464    4.39955067674087    1.21608599609009
C         9.18254898817523    3.05287386457508   -0.03299832282693
H         8.55348581837521    3.20209206697840   -0.89663182268967
C        10.24505781567445    2.17059244268062   -0.10804480444728
C        11.06418170257726    1.96112595836005    0.98469807275528
H        11.90405294332565    1.28941224210496    0.89887202688497
C        10.79410971773832    2.61002366107579    2.17911588943364
H        11.42755385429138    2.43316131880425    3.03741473787640
C        10.52267359318176    1.39369991396321   -1.46559717019164
N         8.16988633544450    3.57246176702818    4.11132241645051
O         1.63445938822647   -1.94797512074828    6.20431790298165
O         2.83842755036877   -3.66155459872095    6.95232194089938
O        -3.18327613601581   -2.65667786955286   14.00622349304089
O        -5.40134458273471   -2.72106897790076   13.57870489832772
O         2.31471995818040   -0.13757927773646    4.10972389747299
H         1.35967228767101   -0.17129220796298    4.22511425873579
H         2.56155785394743    0.80949880488163    4.14614317194379
O         4.27732402174803   -2.36714936732365    5.14898840086106
H         4.09306680307449   -2.56458174550172    4.22675738899477
H         3.88635845363973   -3.09222481670688    5.69435166215977
C         1.74579240263641   -3.09296777226679    6.72872529409108
C         0.48866424025414   -3.78915082841319    7.09310452555040
C         0.51162978552325   -5.08493046572748    7.63400219791431
H         1.46007985085113   -5.57968385776322    7.76862285028685
C        -0.65634552988932   -5.69803931061312    7.98407453625963
H        -0.67830354896809   -6.69404255297132    8.39760706587900
C        -1.89832598217172   -3.82507032670043    7.30428488516577
H        -2.87700447119544   -3.38017815580001    7.21943119510032
C        -0.76318828826495   -3.16794313357438    6.93527579906373
H        -0.80346353236859   -2.16963775893016    6.53199039029069
C        -3.06975742793195   -5.67419216845820    8.33969463474515
H        -3.87957921619801   -5.52786773554934    7.62126034174207
H        -2.91047243128824   -6.74540830669589    8.47942554617106
C        -3.41440542069490   -5.00827061629411    9.65799299994587
C        -2.61408863397539   -5.23324718027340   10.77043297750403
H        -1.77891189870317   -5.91752683614692   10.70830231425762
C        -2.86902846350096   -4.57271055076338   11.95951898300155
H        -2.24021901373821   -4.72369754678668   12.82303645798817
C        -3.93118399527766   -3.69010492772202   12.03583396974358
C        -4.74998447007748   -3.47844155587118   10.94329730998545
H        -5.58956796200625   -2.80650862616287   11.03005928290365
C        -4.47982641036997   -4.12527056775927    9.74775862127082
H        -5.11294661190422   -3.94657196790267    8.88960629930760
C        -4.20875695598624   -2.91539485062876   13.39464711769293
N        -1.85517890377238   -5.08452317451714    7.81498145473249

