175
CSD_code = FIKGOW | q = 1 | S = 0 | Stoichiometry = C88H76N2O4P2RhSi2(1+) | MND = 6
C         1.15144700386868   12.57129597958103   28.34595950408069
C         0.43219950540078   11.40214499358660   28.46368979312511
C        -0.45411475105624   11.17087513837125   29.53663174035002
C        -0.69040347255128   12.20425711363747   30.40674922424282
H        -1.34586788722853   12.04695565203024   31.25045521303142
C        -0.11676539609608   13.47844311864401   30.23352367610987
C        -0.44405811458534   14.55738120224561   31.08105819053732
H        -1.15294199885426   14.38792738047187   31.87805780566803
C         0.11526450776452   15.78913019126577   30.88946262470117
H        -0.13812261044476   16.61251362874203   31.53939460577814
C         1.01321838986521   15.99364195658306   29.83145069552889
H         1.42661739470189   16.97752153016367   29.66948230803852
C         1.36325585797841   14.96300385216573   29.00317164848907
H         2.04162613544787   15.13970759977955   28.18286003360744
C         0.82647083485726   13.67236292735143   29.19263415011192
C         2.23484208809378   12.70572051924301   27.35516916275422
C         1.99434808715652   12.45167668670014   26.02531684802529
C         2.94195140914627   12.73726766933113   25.03247304768408
H         2.66038128742889   12.58069770338558   24.00420327616161
C         4.16341444149390   13.23546600299149   25.38579788754255
H         4.89111166824390   13.49332410246453   24.63031678524362
C         4.50496203484370   13.40782819329030   26.74412225553645
C         5.78525616533281   13.85688442503063   27.12960917308350
H         6.50589350934090   14.08356406225923   26.35759995300688
C         6.11074745045501   13.99565036046602   28.44946840832066
H         7.09124076562964   14.34274291955881   28.73708568633016
C         5.17296410967137   13.67186602141933   29.44098280154264
H         5.44907768174552   13.75803986342547   30.48079700949705
C         3.91829818283512   13.24826251860509   29.10020331352689
H         3.20768397371989   12.99241502257258   29.87097808880809
C         3.53861934515233   13.12768326126180   27.74655741833733
C        -2.69057108340813    9.16940185182380   28.77111888543081
C        -2.97820541698984    7.95986892373589   28.14912674162017
H        -2.29442269429294    7.13207146947291   28.25235971814044
C        -4.13628357002335    7.79053082620583   27.40941305868106
H        -4.33905025945396    6.84087273522907   26.93491125193521
C        -5.04525238391811    8.82856059745621   27.29363170331954
H        -5.95401925679218    8.69541790713030   26.72584810314304
C        -4.78659358595706   10.03516940814107   27.92329107786639
H        -5.49900705849775   10.84459108039905   27.85276754549654
C        -3.62071385998502   10.20067603867321   28.64954640678559
H        -3.42820020957027   11.14374887364129   29.14178773586041
C         0.19397802373508    8.15931656420542   29.89274377962523
C        -0.08869138457688    6.79955943540540   29.99140478176640
H        -1.11738200833545    6.47153145513579   30.01857019293299
C         0.92239321555140    5.86109316227291   30.08740164043761
H         0.67907305958427    4.81135520931212   30.16500014101874
C         2.24612165354857    6.26716946437436   30.10743351540746
H         3.03711907245340    5.53700756257305   30.19648618169833
C         2.54762851837223    7.61651221293434   30.03555926139256
H         3.57708689181594    7.94432992642700   30.06929045482621
C         1.53033543039036    8.54878007239577   29.92926772296614
H         1.78032576697715    9.59892077845994   29.88077920881250
C        -1.82478614264107    9.49898900043016   31.68401848892392
C        -3.17337360605169    9.36470311220777   31.99733280935115
H        -3.89265633822971    9.23000206847940   31.20196468814835
C        -3.60826724669593    9.40182335262418   33.31044668865424
H        -4.66032434292654    9.29774554949534   33.53240964147498
C        -2.69654628502825    9.57252973128698   34.33815703900159
H        -3.03425354787308    9.60334110961973   35.36331334529937
C        -1.34841260268687    9.70067905565308   34.04556729720270
H        -0.63170170566294    9.83023424780360   34.84341342159735
C        -0.92022757449341    9.66138820965530   32.73205296997575
H         0.13363358008935    9.75846102497948   32.50972073048250
C        -2.03419326753493    9.78212227092157   24.83202039698685
H        -1.36750499130295    8.99568715835065   24.45181662916447
H        -2.36360595422631   10.39244982221856   23.98599253281852
H        -2.91010555378393    9.32188472883928   25.29690389610291
C        -2.02390792208512   11.78685184132694   26.20505786201903
H        -1.49276895463330   12.27082144118448   27.02224151242995
H        -3.02298198625855   11.51775909640278   26.54885251979007
H        -2.11543493072385   12.49341164246677   25.37484828570063
C         1.01198380235539   10.35928175576664   19.92793909390249
C         1.71678367818487    9.27683354174963   20.40748061106071
C         2.61040537238425    8.54400502771011   19.59835458351782
C         2.86554972228541    9.01568344929539   18.33607091551359
H         3.52741325497999    8.46152280856767   17.68718717682161
C         2.30326772634463   10.21286944004676   17.85312249705803
C         2.64780640803002   10.73277136267169   16.58794548875717
H         3.36013980742010   10.18857047155508   15.98554005402544
C         2.10033992998385   11.90242087049443   16.14192401589749
H         2.36669707462787   12.29744857132825   15.17360176503983
C         1.19782845463526   12.60684718186735   16.95235401292356
H         0.79362227844970   13.54529049023435   16.60432074974416
C         0.83165729021962   12.12006244361869   18.17699570503336
H         0.15006535922562   12.68236859474615   18.79627172117593
C         1.35520506946255   10.89975628906416   18.65324320172224
C        -0.07253482982595   10.97408747181560   20.71514730929205
C         0.16204599077733   11.40271912550553   22.00057944168666
C        -0.78341630979151   12.14829795890176   22.71839634655676
H        -0.50562441993259   12.51215945767589   23.69393192504697
C        -1.99738139984707   12.42280614137550   22.15639228138608
H        -2.72293936787355   13.02547955150074   22.68284090113876
C        -2.33385623112252   11.91109061490871   20.88505541457384
C        -3.60730050276773   12.12768369019422   20.31861389874965
H        -4.32615214652609   12.71126274470279   20.87486655192608
C        -3.92853102409449   11.60579259126222   19.09728585643517
H        -4.90380317772001   11.77814740497024   18.66865423122344
C        -2.99336975875244   10.82780113314308   18.39900346199874
H        -3.26629442843720   10.39710940420623   17.44771991527064
C        -1.74535031409163   10.61122064221575   18.91409002310874
H        -1.03691078937969   10.00288193478691   18.37320344341717
C        -1.36968670469934   11.16481763409251   20.15648776731516
C         4.83136723914080    7.16788967665788   21.26804789630438
C         5.09443413527868    6.43623411893570   22.42039182168287
H         4.39197097435627    5.68594500877138   22.74736189304365
C         6.25219601255071    6.64013683490806   23.15197947199001
H         6.43560194103667    6.05816371565649   24.04413021243954
C         7.18517066294381    7.57277990356281   22.73151867294163
H         8.09398496494595    7.72533062579132   23.29431215159437
C         6.94980752653720    8.29959063912182   21.57579425004937
H         7.67987542913993    9.01802087107526   21.23168538724802
C         5.78442413247618    8.09904550584567   20.85748401748499
H         5.61074465435545    8.66653716950096   19.95386198594509
C         1.94511400370935    5.74871538653897   20.77248697900373
C         2.22236696733030    4.52354077824988   21.37305003939823
H         3.24956832815868    4.23048040437754   21.53259610010144
C         1.20830081836183    3.65875715820173   21.74153941143339
H         1.44746209997578    2.71277234005928   22.20536383333921
C        -0.11247704882965    3.99342443337140   21.49479062565851
H        -0.90536762589566    3.31264425109071   21.76765150659155
C        -0.40795073490602    5.19573116767117   20.87526989960619
H        -1.43470678902614    5.45668690160856   20.66084908471526
C         0.61190890070820    6.06137228789059   20.52085166484988
H         0.36715170976460    6.99397843783400   20.03291982317923
C         3.97400971593639    6.01488456974876   18.57125824560249
C         5.31365534347370    5.68178682677359   18.39997720534556
H         6.02517475960107    5.92655609850650   19.17573627846178
C         5.74920663566906    5.04304010213422   17.25236058861905
H         6.79406114267601    4.79376937939944   17.13859207355311
C         4.84739159135907    4.72277897064729   16.25207839283072
H         5.18542873604384    4.22448291770246   15.35584600858611
C         3.50812018920808    5.04178111777586   16.40760909391373
H         2.79894327307864    4.79160336219784   15.63211359827906
C         3.07912089979423    5.67826620547738   17.55694547614157
H         2.03203123242867    5.92155408103529   17.67434944701053
C         4.13801805773013    9.59828249802838   24.39781342325690
H         3.45366488417155    9.10791839501126   25.10414389402347
H         4.47996777130478   10.53654259532296   24.84470800716538
H         5.00415549366127    8.95384013214772   24.22523249053230
C         4.17543351877614   10.67887894207875   22.22154128351320
H         3.64626910703664   10.72911303669919   21.27217853809004
H         5.16105879945688   10.24554853250469   22.04921198246297
H         4.30020218722050   11.69324617230709   22.61126648862182
C         0.69839101448707    6.65462471965541   23.86806545542533
H         0.30912115504537    6.95028696955660   22.89484340085280
C         2.05345719281352    6.80033294705215   24.08197673763905
H         2.66291050615477    7.14046537104305   23.24901342922825
C         2.83314395905948    6.08080725454130   25.15392423577865
H         3.83005756382083    6.52238346856822   25.20678473966140
H         2.95708227076857    5.03537087366391   24.85423563091779
C         2.17166665161146    6.14943341026377   26.54364951602134
H         1.53721071173070    5.27837195702966   26.70981357439337
H         2.94939790363740    6.13155180284077   27.30799883749258
C         1.33931026472954    7.39436587612305   26.73463038894658
H         1.74432943783122    8.11875562477630   27.43970105007885
C        -0.01287362558284    7.45176000998451   26.46821735362354
H        -0.60818292091173    8.17168154694813   27.02347349567814
C        -0.81712434928869    6.31899986013957   25.88093799563941
H        -1.80448897507147    6.70170025615140   25.61608320177244
H        -0.96204453936228    5.55606798410786   26.65224539648372
C        -0.16526736097339    5.68420261386520   24.63742467578680
H         0.44490130795364    4.82600137081999   24.92053192034970
H        -0.94954797061537    5.31666995280254   23.97472192772165
N        -1.32567060459690   10.57739723714337   25.81349118865802
N         3.44821731049868    9.83034145391600   23.14579743856077
O         0.62754348073283   10.35427776591919   27.55947041858840
O         0.75063701625120   11.97091206532685   25.63006240300997
O         1.49948489820613    8.80788656325638   21.70599888259274
O         1.39817793411910   11.16386736142638   22.59170320292274
P         0.32888963770332   10.43864630043386   25.96322273262642
P         1.79264269398996    9.66011832429469   23.05997840649907
Rh        1.03946153914802    8.54306545883418   24.90436427279045
Si       -1.19007086380179    9.45441389186355   29.89577363403395
Si        3.33534821739242    6.87137673958369   20.14011265734205

