43
CSD_code = FIKKOA | q = 0 | S = 0 | Stoichiometry = C20H18MoS4 | MND = 12
Mo        4.52896484488838   -0.50371272326013    3.18993579309451
S         8.45699768512741    2.49051236643324    4.29711078960683
S         8.12397847810986    2.31661753079666    1.02212642237088
S         5.97071036354831    0.88011329397651    4.56169699793604
S         5.78487586294525    0.58984592037044    1.41426298838970
C         7.59166163985944    4.10319454522609    4.56996403325267
H         7.19839656428477    4.08278592952314    5.58588147263812
H         8.37616885132114    4.85827604518046    4.50198523354227
C         6.49433252934579    4.33805622323005    3.58417521660689
C         5.20278963047499    4.53112701148339    4.06178180586454
H         5.02663439154026    4.50083898724446    5.12752431275134
C         4.14530407357244    4.75429163023103    3.19904383481493
H         3.15107187611409    4.90712264359951    3.59426248756511
C         4.36608031816313    4.77411407611841    1.83156170971059
H         3.54563711665878    4.93696248068420    1.14842410059884
C         5.64235712726399    4.57067612338682    1.34449715770700
H         5.81942984830212    4.56255041420052    0.27888668527033
C         6.71558303049646    4.35728758547987    2.20292833755558
C         8.05381657419551    4.07342824535920    1.61190540108078
H         8.87738059196142    4.22445700432562    2.30474461783582
H         8.22253129179157    4.65213198449294    0.70455164125138
C         7.15240332133770    1.60203590360641    3.50197908675740
C         7.04823209145434    1.51675198420331    2.16975752058490
C         3.21578122798234    1.33426193639423    3.07022367321585
H         3.50644172468410    2.37103453355119    2.93191463979256
C         2.75412508434156    0.46492075459129    2.03856998043728
H         2.73690979371028    0.69913960726104    0.98478452285138
C         2.17732379059532   -0.65500325123744    2.65009484959428
H         1.66458356793956   -1.45776757588027    2.13898647929840
C         2.26699658099302   -0.49440062810748    4.05469553278352
H         1.83570287688524   -1.15465026958357    4.79409007659033
C         2.89449571937428    0.72900709175887    4.31929864763858
H         3.00761484877968    1.19337896422858    5.28778412992965
C         4.11996303784831   -2.71668841399949    3.42443606688151
H         3.17144890887122   -3.22547219764507    3.53917559482334
C         4.98909061491040   -2.34604162474976    4.48832979872101
H         4.79674372685067   -2.48138862749048    5.54177724140693
C         6.24904554786360   -2.05205225437923    3.92064330282624
H         7.15684858264248   -1.83577727855464    4.47046428329476
C         6.15302061623554   -2.18728559123092    2.52693042747498
H         6.97345415343066   -2.08727000077149    1.82724453819671
C         4.83193551358139   -2.56565203534340    2.20299203051999
H         4.49733597973087   -2.88685834471123    1.22857653696866

