53
CSD_code = FIKNUK | q = 0 | S = 0 | Stoichiometry = C20H24MnN5O3 | MND = 6
Mn        3.63662663542276   -0.04506992956062    2.98181909797136
O         2.23598940551730    0.64983041416547    3.93788741352145
O         3.43686308382066    1.19795366840415    1.53550511420607
N         4.96451584300212    1.06089508634502    3.62874662495566
O         2.36057280572421   -1.15279126160124    2.11211782067431
N         3.97987954839214   -1.49462210204335    4.63090876082137
N         4.93091469563020   -1.11106220565328    1.99586306958702
C         1.13602459796089   -0.96543971852656    1.90486255154995
C         4.08513261885727   -0.88057117225080    5.95519869033413
H         4.38027877162077   -1.62146866617847    6.71017243082632
H         3.12272356136099   -0.45296166492963    6.23095272026709
H         4.81896530280432   -0.07799697833411    5.92891986420092
C         2.98225164276811   -2.56160804039381    4.70230720642890
H         2.86643564669302   -3.04397591051241    3.73341793391922
H         2.01925357360591   -2.13979493013090    4.99076169544961
H         3.27148730556253   -3.31941633426396    5.44475265244250
C         0.35908773109378    0.00126365339350    2.61654801026843
C         0.19566137196101    1.70037095597207    4.37221015851953
H         0.68840628790965    2.28719893367240    5.13344915362847
C         0.99814826082300    0.79068875673541    3.63555612925837
C         5.18757055256891   -1.03987755461440    0.71190085741355
C        -1.13463991380871    1.85685616565231    4.10089359889097
H        -1.71823109423773    2.57481926431826    4.65886293253351
C         5.80381973742029   -2.22182760046004    0.00013697712394
H         6.88742245295599   -2.22267182656682    0.12239303544816
H         5.57223328275042   -2.19912674863163   -1.05915084071921
H         5.41496970511061   -3.15469653502254    0.40218833471142
C        -1.01901541092401    0.18397483232270    2.38582781484991
H        -1.50484677272120   -0.39915400568176    1.61858404590376
C         0.47532625651283   -1.85647779710439    0.87492293873272
H         1.22194104843873   -2.53024108972626    0.45948521971697
H         0.06073048633592   -1.25371058484034    0.06977393619265
H        -0.32671755522225   -2.44075344740088    1.32250824864558
C         4.41019706096715    2.41242618680139   -1.67149027218955
H         4.21688632082924    3.27157377725651   -2.29719793231295
C         5.28490147468686   -2.03474218378438    4.23140256842984
H         5.51325491205033   -2.96020057309484    4.78284626017508
H         6.04038060563720   -1.28312590954837    4.47002448768028
C         5.34562174515679   -2.30037504398856    2.72669450450388
H         6.37684954839083   -2.57375390772326    2.47213097178700
H         4.69278579297624   -3.14592144852661    2.46796040839528
C         3.81042803096332    2.30043706451938   -0.45269340968197
H         3.14162492683206    3.06191411850941   -0.08044085843161
C         4.04057968510246    1.18943352681505    0.40881366660938
C        -1.75082124181979    1.09368795593001    3.10038606585533
H        -2.80218518257379    1.22800102593524    2.89515290656775
C         5.29528071945719    1.41797607283644   -2.10469587821390
H         5.80138578821090    1.52148690177647   -3.05262061466064
C         5.52580032129206    0.32225665410319   -1.31889852187413
H         6.24365678339929   -0.40397947946664   -1.66728754514416
C         4.91026136667997    0.14093079647534   -0.05946917825684
N         5.32761134735758    2.17696965065959    3.60750782255094
N         5.79701852869945    3.20816918796644    3.67599034994014

