51
CSD_code = FIKNOE | q = 0 | S = 0 | Stoichiometry = C20H24ClMnN2O3 | MND = 6
Mn        9.57642878918380    3.46888760390978    7.62954961253647
Cl        7.94123741991375    2.25997496194310    6.84991345542521
C        12.15541685606852    2.72513054258370    6.68501183128114
C        12.87676644131716    1.87266537148706    5.81287057554830
H        12.30858552808478    1.32962908989264    5.07243238125877
C        14.23005472247213    1.71479956978204    5.93501578887918
H        14.75544516690403    1.03920032033349    5.27594220403607
C        14.94317056618557    2.42363218193705    6.90977553762479
H        16.01136849697578    2.29153643400244    6.99323660389676
C        14.28623254963714    3.27869234299724    7.75415242381158
H        14.84575804075089    3.82180792348933    8.50003325408433
C        12.89011236408247    3.45340853613304    7.68194103872379
C        12.17807120514422    4.36001248483352    8.52806743962623
C         9.42332569059042    2.18910689422736   10.16718996974238
C         9.78698495069571    1.07062248062189   10.96919810601183
H        10.37158099767871    0.30325873813625   10.48428691167604
C         9.41357745698242    0.96697776815983   12.27601275267969
H         9.70686644675226    0.10771817226748   12.86111010470639
C         8.63117881807614    1.97340141679486   12.85462014495611
H         8.30462715264234    1.87911925246139   13.87927934379694
C         8.26981679642254    3.06921449842398   12.11897425945162
H         7.63566796960238    3.80060451391699   12.59387567959973
C         8.65762116039462    3.24778887595133   10.77158390127008
C         8.24294542144936    4.41050432073284   10.03523029822285
N         8.37795275809992    4.49515867641465    8.73228001459853
C         7.81011170436680    5.65288014347794    8.05390692124109
H         6.77152651767681    5.80856071477818    8.36845697062164
H         8.38761386627020    6.55234135966022    8.30967533353136
C         7.82122447298363    5.44080777631111    6.54084792026660
H         7.51360249045497    6.36745742897156    6.03272944476971
H         7.11282059370744    4.64356339826594    6.30280099760892
C         9.02321334919255    4.46568492212984    4.71799251856433
H         8.35526877421839    3.60582926194586    4.73168042289604
H        10.00161849876275    4.13664005717517    4.37168106617969
H         8.63419852108435    5.22786364946531    4.03156949415422
C        10.08055271883105    6.12661948068113    6.04527357324737
H        11.05092811760302    5.78122496214503    5.68728529758662
H        10.21452120354746    6.54290920890476    7.04240358801188
H         9.71855326333401    6.91721067049061    5.37315988211281
C        12.92730127037760    5.21595572431951    9.52456656356606
H        12.21728618805215    5.85728981880518   10.04191618992672
H        13.67320274369746    5.83167126106509    9.02564416688899
H        13.42809277082887    4.58500991051366   10.25587474696040
C         7.61074203760038    5.54768825482125   10.80211749617549
H         7.85514439422855    6.50506435998099   10.34938849719885
H         7.96832609413543    5.57137636016494   11.82554346402069
H         6.52569642067537    5.44120186582414   10.81208711718266
O        10.88731598455127    2.86482944826654    6.52594117222021
O        10.93174087624075    4.52276584785987    8.46533759487317
O         9.79512043353438    2.17037838422573    8.94445149592474
N         9.14358292792099    5.00302275831976    6.07588443082764

