95
CSD_code = FIKPUL | q = 0 | S = 0 | Stoichiometry = C42H48Br2N2Ni | MND = 4
Ni       -3.93116313316365   10.23356872625642   -2.38247403591596
Br       -4.94976711227949   10.49277045995356   -4.33543379278642
Br       -5.83908014270986   10.29985115862611   -1.24941266957085
N        -2.15750725033591   10.81217472213412   -3.03450632831973
N        -2.90002883740622    9.36550508357547   -0.93783804686657
C        -1.23699005713837   10.41178849042942   -2.22956750695059
C        -1.63869159732369    9.53410743531913   -1.12819954821218
C        -0.43052864770058    9.07394441968549   -0.45888181346968
C        -0.14440661888428    8.18960051942131    0.55208925787213
H        -0.91837353639523    7.61958643168799    1.04412080984246
C         1.20044621594676    8.03230609219779    0.93618197053315
H         1.42242075056921    7.33638082074925    1.73189400180088
C         2.22934031569463    8.72925479815128    0.34994949104271
H         3.24506609667238    8.58406914452607    0.68716337527290
C         1.97169374475717    9.63621933205986   -0.70310835068439
C         2.90247725458281   10.42601833955483   -1.41574824524324
H         3.95064934550841   10.36753696814325   -1.16210728134506
C         2.48005914348863   11.26650361652881   -2.41750244692755
H         3.20747187179617   11.86850759699661   -2.94216625698689
C         1.13120594226698   11.37488824285304   -2.80367905199775
H         0.84865113128580   12.04784589847585   -3.59921053361883
C         0.20235252290036   10.61051480487251   -2.14071017973709
C         0.63429734173988    9.76803853498825   -1.08588982623161
C        -1.86845760951456   11.67535929175568   -4.10077852978903
C        -1.21353948491297   11.20581110577733   -5.24476074102888
C        -0.94451518545044   12.11525327318972   -6.25545990225422
H        -0.44195459646354   11.77668194373120   -7.14869114168470
C        -1.30453657282395   13.44962822474441   -6.15347377414243
C        -1.99485954163377   13.87644765336724   -5.02825918025085
H        -2.29581278039523   14.90963625419500   -4.95987476247356
C        -2.30580970900810   13.00373726973539   -4.00100471081144
C        -0.89442776232686    9.74005644915895   -5.42954079189861
H        -1.11180540504122    9.19994524619553   -4.50145189385358
C        -1.80254311065331    9.16700356727979   -6.52219102168341
H        -2.84739237858140    9.34073468586467   -6.27478317200544
H        -1.63942498456092    8.09582707657126   -6.62094445067046
H        -1.59607104816050    9.63837333896466   -7.47952947448016
C         0.57848302739460    9.50513409824264   -5.76795398176291
H         0.84241554011473    9.97507559805580   -6.71147506831624
H         0.77033063040350    8.43769585638785   -5.85531424215265
H         1.22584229729879    9.90599363747934   -4.98955725791714
C        -3.05970985111869   13.45209274133404   -2.76895315802769
H        -3.59641133302890   12.57359160453730   -2.34801144656760
C        -4.11985108931940   14.50772431026449   -3.07022822768370
H        -3.66731191195582   15.46620696551345   -3.31385742088427
H        -4.75481879622230   14.64704691786187   -2.19793830062495
H        -4.74428413029055   14.18639906573397   -3.90061067283911
C        -2.07600154020339   13.95190573322352   -1.70711341150691
H        -1.35164137567586   13.18087706706795   -1.44366544875385
H        -2.61085646816315   14.24306500568156   -0.80548383079807
H        -1.52987380011097   14.81618264202813   -2.08146848595375
C        -0.93528458544624   14.42247801184335   -7.23429048567530
H        -0.91324209422386   13.91374437053150   -8.20266379958679
H        -1.69088992353620   15.21125154570628   -7.30051151222803
C         0.40239845745831   15.07209055284645   -7.01467507596820
H         0.70315787445891   15.74687382004687   -7.80637781592697
C         1.19024267994360   14.88570893884190   -5.97311984116407
H         0.91951477989021   14.22682422691913   -5.16464932563135
H         2.13706822452157   15.39006532703099   -5.88087135366480
C        -3.39373040655992    8.57233397154848    0.10489599365367
C        -4.03227316520761    7.37001844033511   -0.23318610695096
C        -4.53677699730242    6.58382295540985    0.78636643981734
H        -5.02276457744952    5.65055307945118    0.55145395036298
C        -4.45658995253546    6.98391358317773    2.11254887414234
C        -3.86725066918856    8.20136127842685    2.41351478837470
H        -3.84802786165300    8.53053024512209    3.44122053202781
C        -3.32425002002937    9.01478999305063    1.43179253697933
C        -4.12423930056788    6.95671686177550   -1.68490906328370
H        -4.14157641791137    7.87657499127057   -2.30984309748532
C        -5.40175215123022    6.18608699120210   -2.00601472159281
H        -5.37816606711169    5.18523332805606   -1.58126228650908
H        -5.51046068562873    6.09170026916759   -3.08432777192354
H        -6.26831568610993    6.71712795481139   -1.61916530383438
C        -2.88305213376254    6.15086218576912   -2.07854489674048
H        -1.96933547820310    6.72020329065755   -1.90658355356605
H        -2.92737611369932    5.88188873279546   -3.13185440083598
H        -2.82937076176735    5.23693432688887   -1.48931784498592
C        -2.79486399372047   10.38530751180943    1.78747928747293
H        -2.32546882470232   10.83816448953809    0.90727114467505
C        -1.73986280183334   10.33224544519820    2.89319424954497
H        -2.16386044654762    9.95794165380763    3.82090951591801
H        -1.35071545248531   11.33138188278279    3.07795825696119
H        -0.90876068786294    9.68943456587962    2.60735245171659
C        -3.97073263655621   11.27792258697756    2.19742614046909
H        -4.45159814991106   10.89148841751025    3.09221183641021
H        -4.71298030467244   11.31478391417778    1.40330657705242
H        -3.62220085103753   12.28872236442422    2.39878554770030
C        -5.07585176411190    6.15061404527758    3.19402064199210
H        -5.00847556445281    5.08894957381020    2.93573083337406
H        -4.53490544633851    6.29280199947819    4.13517694539633
C        -6.52528748801467    6.48727672954124    3.42718666266203
H        -6.99233163973317    5.89598130964203    4.20542131897387
C        -7.21819072412636    7.40435197346370    2.78019180196215
H        -6.79043414761722    8.01151594639831    2.00005237137046
H        -8.25539181697179    7.58475805652346    3.00571106777248

