43
CSD_code = FIKQUL | q = 0 | S = 0 | Stoichiometry = C19H18Cl2NOPPt | MND = 4
Pt        4.25978445056724   -2.04550072132595    1.66472851560605
Cl        5.79204808038549   -0.42591646412158    1.79132423415869
Cl        2.59532226889040   -0.59005542219914    1.97628344694294
P         2.83841300455998   -4.24553649322423    0.22521555463821
O         2.85985894397438   -3.76428479445324    1.63245088834534
N         5.64865263780058   -3.45043605609973    1.42236351571025
C         5.52490502862735   -4.37105926663305    0.45348830224052
C         6.30987664911586   -5.51673674542331    0.45020072574223
C         7.25445155837463   -5.70774822177511    1.44562520425517
C         7.39537951901019   -4.72794613699640    2.41825735280276
C         6.57502808035887   -3.61849971984152    2.36933150366242
C         4.50879146953675   -4.12983319418979   -0.62517259780166
C         4.71446558869254   -2.79652627740140   -1.34668713517185
C         2.49816595547886   -6.03277043681424    0.23747156700866
C         1.65092871489014   -6.66183742408098   -0.66329120258642
C         1.45791841495916   -8.03032360167656   -0.58367161491810
C         2.10771212949378   -8.77070589891208    0.39013878262527
C         2.94528884614176   -8.14210076723989    1.29798751073181
C         3.13800850227090   -6.77526499357882    1.22381047256055
C         1.63323582062957   -3.39357269911870   -0.81927082531242
C         1.54230700883728   -3.63400834908569   -2.18718032979003
C         0.59822610986766   -2.95675601622511   -2.93562622760910
C        -0.24615429463264   -2.04091976972279   -2.32471122425528
C        -0.15049510605228   -1.80065012513025   -0.96431326085881
C         0.78751288314086   -2.47949594250859   -0.20568629931947
H         6.18053286050391   -6.24834568081652   -0.33317092846077
H         7.86868787746430   -6.59447774022493    1.45494264838231
H         8.12632971907224   -4.82294504556490    3.20441615902290
H         6.65206992547336   -2.82509793550807    3.10122910314122
H         4.56573012505600   -4.94803758397974   -1.35101547429773
H         5.73973796672929   -2.72595695679065   -1.70607143032642
H         4.03849476750334   -2.71052367318682   -2.19355685848546
H         4.52778660071263   -1.94807976792778   -0.67391288593597
H         1.13264177692401   -6.08349180144471   -1.41354142529261
H         0.79478282754987   -8.51933457223570   -1.28165201837736
H         1.95363998192871   -9.83771781287671    0.44796408694923
H         3.44261597570982   -8.71635643889161    2.06527348399609
H         3.77055942825822   -6.26851002687988    1.93917464452359
H         2.21043062370584   -4.34020928522456   -2.66191231690124
H         0.52337418646660   -3.13715274783797   -3.99805921108259
H        -0.97641928759822   -1.51018219589080   -2.91719674932112
H        -0.79938430233556   -1.07989836088437   -0.49165857052698
H         0.89175668194815   -2.28579683607103    0.85258088357280

