68
CSD_code = FIKQEV | q = 1 | S = 0 | Stoichiometry = C23H39AuClN2P2(1+) | MND = 4
Au        7.56364428539079    1.23608816643764    6.87236714334643
Cl        6.92104696450956    3.16648530858673    8.00231823382181
P         9.55249067119609    2.35328966543703    6.42357130721573
P         5.58652692459336    0.09448041148304    7.37109322546356
N         7.56787646728372    0.66681616574038    3.87223628809193
N         9.26360904496063    1.00034729744476    2.34742698599546
C         8.23297689440491   -0.39565670807708    5.92917615490482
C         8.80839501418419   -1.44869841331410    6.61124772321011
C         9.36199406050397   -2.51220004149820    5.91256110516259
C         9.34413709068607   -2.50497485461897    4.52837497813589
C         8.75835615219972   -1.46013765083936    3.84111782513724
C         8.18715878009816   -0.39573939257163    4.53745751764151
C         7.98605367082456    1.18727854589600    2.66335952653494
C         7.11211474649237    1.93625720292452    1.87027698590021
C         7.59962832305439    2.47875630736324    0.69865863925192
C         8.92974605233866    2.26678517155094    0.35470746744302
C         9.71417116532221    1.52345181673012    1.21732508712219
C         9.30709301091710    4.04918392153380    5.79238872067665
C         8.61275997238189    4.07965537398865    4.43757512107210
C        10.41859916641824    2.62904554519925    8.00880403382234
C        10.80373214972624    1.32324471713899    8.69278151740492
C        10.72127457277550    1.50856183977209    5.29474069521647
C        12.02906146552276    2.26017402127146    5.07261921485834
C         4.24960512942726    1.26549553805153    7.80863528403591
C         2.91353197946805    0.63955741064756    8.18973882333491
C         5.86287409591011   -0.97108274897590    8.82974190080861
C         6.44864982327958   -0.17401751513102    9.98972351084644
C         4.92563263379892   -0.99611753335901    6.03997250724508
C         4.19593222213298   -2.25230824746381    6.50849000765632
H         6.65587736775055    0.95485897439935    4.19614439611953
H         8.85147427980788   -1.44060233060199    7.69097499839671
H         9.81284640035381   -3.32906183907949    6.45336940884080
H         9.78284238270925   -3.32368230074096    3.98002606814999
H         8.73971494034499   -1.44918989260855    2.76362997220176
H         6.08515353709140    2.07857220113190    2.17143808093262
H         6.95243716759051    3.05733730841444    0.05730417578369
H         9.34122951715435    2.67050647994329   -0.55506661011175
H        10.75880782873683    1.33316819726067    1.01172336106797
H         8.70682754256081    4.57252875616317    6.54280452145588
H        10.29275195907998    4.52515699642227    5.74547249007141
H         8.49506390330210    5.10832160767915    4.10524232061174
H         9.18399521864526    3.54011673994636    3.68482612134070
H         7.62264346630638    3.63183724662331    4.50906396367717
H        11.29832692116664    3.25210706404310    7.81654148955689
H         9.72516015646535    3.20235459579711    8.63304327875536
H         9.92233272155350    0.70278498097531    8.85474232925806
H        11.51724613739322    0.75819810034136    8.09649272693395
H        11.25586418669242    1.52898892539546    9.66013052258435
H        10.91048945142513    0.52157122039390    5.72841192687087
H        10.20932886605757    1.34578194421021    4.33827177376389
H        12.56428580566840    2.42690518353804    6.00488329073114
H        12.66780100595729    1.66856934336441    4.42120816222349
H        11.85916924418105    3.21871883788170    4.58851987069578
H         4.64321891024755    1.88059907880009    8.62362458273074
H         4.13264846123822    1.92759078815047    6.94275376405057
H         2.22462859497477    1.43035534174931    8.47778717697154
H         2.47193630487305    0.10204479499529    7.35377766703961
H         3.01417196878471   -0.03722609237601    9.03507761650016
H         4.91219056423739   -1.43250799321800    9.11265622293138
H         6.54894587244057   -1.76435840481920    8.51528038111994
H         6.70279550930445   -0.83936490650609   10.81153518584795
H         7.35142138317433    0.35493310019668    9.68199173627797
H         5.73988274419022    0.56408685196235   10.35783672713335
H         4.26191852481099   -0.36857554683146    5.43420208847449
H         5.77596138680678   -1.28883029793845    5.41569922821159
H         3.37090841874598   -2.02189147658212    7.17630109896461
H         3.79129707651680   -2.76793436576420    5.64034127602755
H         4.87633174185429   -2.93319053406583    7.01284907645149

