34
CSD_code = FIKSEX | q = 1 | S = 0 | Stoichiometry = C9H21PtS3(1+) | MND = 6
Pt        0.69641449999975    4.74400503921833    1.15634142194256
S         1.18335384157553    2.19246275780649    0.88024221192608
S         1.03004395765724    4.18479678109921    3.68602625700408
S         3.30476510942462    4.88725931395393    1.19726007562089
C         0.45904643727791    6.76468850247100    1.43733685986104
C         0.51987321388446    5.05244853042804   -0.86644416880804
C        -1.34471471831802    4.53857729622041    1.25495582986398
C         1.42690394747294    1.57066834812973    2.59372696969173
C         0.70713574414623    2.38441204632982    3.65310799419654
C         2.84841643871246    4.25877192609272    3.95040744230345
C         3.57484226571969    5.17533425512588    2.98359358577143
C         3.87639080237180    3.15254103032951    0.98319714179255
C         2.89475975391276    2.26701504671513    0.23827128259006
H         0.46951189747193    6.92896483283427    2.51649418843699
H        -0.46190990710354    7.16783295804106    1.02625462613610
H         1.31007675062143    7.26343931889002    0.97092541246677
H         0.12617044339172    4.13442494775920   -1.30565104880760
H         1.52800156180704    5.24688151026526   -1.23748273555975
H        -0.12420315383216    5.88408294805310   -1.13720554490609
H        -1.55632815065076    3.48113267209621    1.08534093355346
H        -1.88938785973611    5.13077961603613    0.52530662151568
H        -1.65589441394955    4.82982184438587    2.25946006502613
H         2.49906018410205    1.51364119326720    2.77455725656722
H         1.02624387960029    0.55569530050234    2.60944396268116
H         0.95162606318008    1.99694192415545    4.64395266889757
H        -0.37319322262952    2.32518145218933    3.51273918535924
H         2.99433395516811    4.64153516557982    4.96190127520022
H         3.22822214059538    3.23891788896189    3.91689136393015
H         4.65076943952350    5.11616426359944    3.15838372825264
H         3.25557455269659    6.20921542158110    3.12299058025974
H         4.79956320747499    3.20507179310990    0.40355909446631
H         4.11865575270489    2.76116067933434    1.96989614468258
H         3.27117083363545    1.24269839442977    0.21049984691766
H         2.76400475213352    2.61803500107864   -0.78638052883151

