71
CSD_code = FIKVOM | q = 0 | S = 0 | Stoichiometry = C36H30As2Cl2Pd | MND = 4
Pd        8.07907519104131    3.30593697992651   11.14446406777400
As        5.77137596385678    3.08258937030353   11.34889569416453
As       10.37832674851564    3.49576648201812   10.89902713870277
Cl        8.21402872373667    1.03115502947182   10.99849003801306
Cl        7.96318327663801    5.58030907307723   11.28144705999832
C        11.34201780016608    5.05896707386866   10.25639142884232
C        11.34294178198251    6.21639188157099   11.02886842843635
H        10.83272619345600    6.21540237720621   11.98628094289933
C        11.97729047442218    7.35706239430539   10.57249485689065
H        11.97441199448746    8.25293139999300   11.17621530165484
C        12.60954189345119    7.35361973744541    9.33947212935243
H        13.10211799195678    8.24617544941722    8.98250978772031
C        12.60459749924987    6.20811313383858    8.56134493162362
H        13.09299097279174    6.20659023068661    7.59736900066423
C        11.96937618656957    5.06437204483343    9.01479632982410
H        11.95842559608258    4.16354074840229    8.40683264951874
C        10.96785483900519    3.41302522196831   12.74534585377234
C        12.27268668402954    3.69981057282252   13.13798897238452
H        13.00305654058153    3.98946710598849   12.38702779772605
C        12.62673904760545    3.63552606127786   14.47403817973944
H        13.64113786092087    3.85597227649723   14.77455741299867
C        11.68041616029424    3.29388703343071   15.42738220170539
H        11.95970289352575    3.24482218143628   16.46966190584165
C        10.37588819243528    3.02466661549810   15.04789748684390
H         9.63714646921978    2.76942464818805   15.79406551122299
C        10.01960919174209    3.08561910960172   13.71141014938690
H         8.97922906952888    2.87554233381032   13.41102268670964
C        11.30049999654113    2.05123672773775    9.97536448562257
C        10.73442420785972    1.64347198227305    8.77086652187179
H         9.82297909682186    2.13436472579540    8.42591345144667
C        11.30022427746271    0.61289504817472    8.04398377757924
H        10.85409083405778    0.29559312980782    7.11241829740392
C        12.43493734816965   -0.02233357357695    8.52304979998503
H        12.87561296478549   -0.83380678649449    7.96255936522626
C        12.99653498357713    0.37151623319921    9.72573626568297
H        13.87380049434005   -0.13431071339424   10.10297064561974
C        12.43188544721625    1.40623668070231   10.45336453641641
H        12.86047937945523    1.70451146553943   11.40370126778295
C         5.20229896316976    5.14397930199616   13.23752470136670
H         6.10058556134583    4.73473488907497   13.70000459208921
C         4.54622128405348    6.22253881851545   13.80096054346265
H         4.90953543633706    6.65994865414154   14.71970782481088
C         3.42832729696737    6.75012044697195   13.17474980329309
H         2.91780763829654    7.59809550308633   13.60737550936350
C         2.97198159055927    6.20057436743529   11.98857797090578
H         2.10656422894155    6.62098873107203   11.49651588319406
C         3.62716988742374    5.11843449892516   11.42470031242530
H         3.27982807186385    4.69519931834350   10.48828499518287
C         4.74356239608216    4.58167515994838   12.05006985263034
C         5.27604546890134    2.97876473864210    9.47437343818498
C         4.03135581913816    2.53056416667028    9.04063466298790
H         3.29232521616165    2.22009424025753    9.77427003411214
C         3.74763866628301    2.46479188699565    7.68780387848151
H         2.77998227078437    2.11605205540564    7.35625052062900
C         4.70442678637385    2.84032248785453    6.75830760453023
H         4.48140348628355    2.78469370413693    5.70288838893542
C         5.94805837630865    3.28067059011771    7.17995824669617
H         6.69488711744680    3.56830440631279    6.45373095972242
C         6.23353212185684    3.34937759411546    8.53279121703913
H         7.22441622644071    3.70203158580691    8.86538219514925
C         4.80635856378344    1.56648863177435   12.09882572270273
C         4.10262540760470    1.68088006478998   13.29386557237104
H         4.06064409570627    2.64213793718208   13.79914946797392
C         3.45806282600309    0.57947340468493   13.83097674451252
H         2.90968740862155    0.67535948427803   14.75719191948501
C         3.51944584847003   -0.64364576968351   13.18443175216399
H         3.01844061962115   -1.50270953132421   13.60603769513701
C         4.22828201533207   -0.76632138613389   12.00022610797044
H         4.28304371095261   -1.72195980615722   11.49938992295939
C         4.87200774186903    0.33191686915638   11.45984430103407
H         5.44038358340991    0.23926146895405   10.54107129943876

