73
CSD_code = FIKZEF | q = 0 | S = 0 | Stoichiometry = C31H37FeO2PSi | MND = 8
Fe        2.40408499432308    5.04978437210302    6.38038669272256
Si        2.52914830481061    5.19361974833681    4.17718892859630
P         3.31723480331880    6.95585948186690    6.58968838521638
H         2.56774378793981    8.14525348819628    6.70111770574478
C         3.89186481110925    4.20674424570423    6.11998072628598
O         4.84567710307128    3.56947173073774    5.98036524814459
C         1.35859945934880    6.63930028511388    3.65983000367950
H         1.66318899654830    7.09594509000513    2.72326205867756
H         1.37597361928461    7.41161799793962    4.42300482624751
H         0.33317391745988    6.30678550845763    3.55003473775511
C         4.09120821903816    5.43018568042869    3.07228337312493
H         4.95690950576115    4.94241128307704    3.50631821653950
H         4.34583970925130    6.47150549688207    2.91553311732381
H         3.91668828021093    4.97641287089421    2.10048553819372
O         1.97116157731179    3.69404612235837    3.74361765551381
C         1.77765842939053    3.13641469166738    2.53357459440015
C         1.96413410394141    1.76209422598838    2.39842059580342
H         2.29463909583313    1.19597982805891    3.25588401218269
C         1.74011228926524    1.14401137259031    1.18320177333910
H         1.88926626502457    0.07803199250442    1.09126386803379
C         1.32941157057433    1.88391440063696    0.08706997618703
H         1.15464456741295    1.39961585553171   -0.86189262215410
C         1.14706921155426    3.25000791566504    0.21720481011649
H         0.82934908756491    3.83573086659333   -0.63341303178972
C         1.36822261724386    3.87592125105192    1.43012802981704
H         1.22635633966517    4.93816357435341    1.53940666505127
C         1.18397481564236    3.39921800928890    6.84982420915551
C         0.31478366104447    4.38960174041580    6.30024022879782
C         0.45525860503745    5.55586030386146    7.08498893742368
C         1.31738472050817    5.25200018728851    8.19936933825156
C         1.75594633952386    3.91686974231999    8.05616660520161
C         1.26874570837461    1.97942517775728    6.39582438932763
H         2.23217778619566    1.54957053176133    6.65808950653892
H         1.14702315465826    1.92531127809915    5.31862609868829
H         0.48504809938897    1.38147896329338    6.86533312680146
C        -0.70927902841602    4.14068792938644    5.24255141558253
H        -1.53099920607006    3.56230426307918    5.67043532531424
H        -0.29476725983461    3.57468781326772    4.41477370909493
H        -1.11672042607239    5.07167681470248    4.85924838750941
C        -0.35050125188683    6.81024801756089    6.97332426008737
H        -0.71020749053495    6.95400826645913    5.95822625038501
H         0.24556795153269    7.67903802679677    7.25101322607599
H        -1.21251127298297    6.76990859118460    7.64193548607083
C         1.48584990007511    6.14430809035709    9.38680408391187
H         0.58052555431092    6.12006865842022    9.99685122051594
H         1.65598930803655    7.17699308916941    9.08202975762419
H         2.32459530310196    5.83346898063330   10.00449839140643
C         2.55906786395334    3.11602210574035    9.03188786659066
H         3.05831512984668    3.75980238089198    9.75143029831797
H         3.31315038913521    2.52473153220036    8.51691656287517
H         1.90815355901427    2.43087576883255    9.57782338536507
C         4.27218969125285    7.18919145469704    8.13201243380824
C         4.49930301255003    8.45187120138816    8.66726391464355
H         4.07784610159760    9.32199240441227    8.18014697852045
C         5.25696836082853    8.59043037306351    9.81556846514178
H         5.42845687890168    9.57174827123059   10.23384149414079
C         5.79717596077721    7.47186210222979   10.43021620738180
H         6.38843342710795    7.58363793197034   11.32725477863232
C         5.57921938175857    6.21205866848543    9.89624692319280
H         6.00257316472069    5.34126210183678   10.37597062791348
C         4.81707709964665    6.07174124542118    8.75060934957059
H         4.62053784207438    5.09975451165375    8.31875941282596
C         4.55461419732228    7.65666011851851    5.45724368282661
C         5.81106462672450    7.06162970010137    5.40022996603950
H         6.01881837125562    6.21135798603826    6.03523381989540
C         6.77578006185089    7.55341035025820    4.54235752498161
H         7.75091530429131    7.09077163301734    4.50241478293860
C         6.49087926628374    8.63977804711691    3.72959605589697
H         7.24382093514660    9.02306917147180    3.05682198672070
C         5.24100872656828    9.23409687184240    3.77951070227214
H         5.01957663657539   10.08070049780710    3.14565999057697
C         4.27500690033352    8.74618434308236    4.64154779928167
H         3.29760147258442    9.20769537484419    4.68053515113613

