74
CSD_code = FIKZOP | q = 0 | S = 0 | Stoichiometry = C31H38FeOP2Si | MND = 8
Fe        1.88529515206932    0.01652937355718    5.03624878831591
Si        1.25976347559778   -1.71247231213055    3.76379102472634
P         1.92712169089983   -1.15607352377886    1.62404580098561
H         1.06659799969983   -0.05829625557550    1.59772154336917
P         0.45373298011627    1.37806412865696    4.21585331355496
H         0.79981564728150    2.24420016621803    3.16478334822824
C         0.79708200430845   -0.77084607692790    6.13033227298995
O         0.16653008130899   -1.33327669892330    6.91818063234610
C         2.09501959237877   -3.38756717536275    4.21024155024077
H         3.16537288634057   -3.38364121032234    4.05849955790916
H         1.67981154790817   -4.18776204654359    3.60679851194812
H         1.90009682420785   -3.62058125730387    5.25058267907665
C        -0.58093143486658   -2.28507473069432    3.61918919948643
H        -1.06581324831574   -2.29721891564902    4.58885529247680
H        -0.63154425325625   -3.28840227946719    3.20741053349777
H        -1.15840910161842   -1.63988178285321    2.96739186178321
C         0.80863949615455   -2.28838055879559    0.76517733620154
C         1.21763006921317   -3.60857390512324    0.58854861073985
H         2.18452243787781   -3.91338238847692    0.96608093694987
C         0.39987910785990   -4.51638602012981   -0.05399780267136
H         0.72412389167305   -5.54001135620399   -0.17913642205399
C        -0.83408538576714   -4.11595875040829   -0.54179725340266
H        -1.47499854547251   -4.82561163941528   -1.04442256696455
C        -1.23903794090267   -2.80061737370506   -0.38742040051297
H        -2.19829608576435   -2.48219119074028   -0.77122210313639
C        -0.42402500947317   -1.89048957279501    0.25774936982022
H        -0.74539049305102   -0.86468555742483    0.37637604319339
C        -1.20090966189053    0.98528722391717    3.57132828494275
C        -2.14128805229674    0.46370470824913    4.45510101948277
H        -1.85914934601371    0.30767244540468    5.48762146473277
C        -3.41033098030694    0.14595674631272    4.01235712032866
H        -4.13831659358494   -0.25798703661731    4.70028439255760
C        -3.74770789241437    0.33970607991611    2.68134958180087
H        -4.73725619951386    0.08409258037851    2.33259453193265
C        -2.81818854358407    0.86279277121876    1.79873187634698
H        -3.08357004854283    1.01730748471797    0.76265091680931
C        -1.54870771436402    1.19088774922755    2.24197401576160
H        -0.82228257158947    1.60556756006082    1.55459916160940
C        -0.09148970341437    2.67660665020705    5.38148316266156
C        -0.54590969877289    3.91074970551625    4.93089144823660
H        -0.55033722886260    4.12398408822867    3.86952330613363
C        -0.98556001630529    4.85863989739071    5.83626526409848
H        -1.33239988310253    5.81978902324681    5.48544121928123
C        -0.98217410126263    4.57692135424525    7.19327838412778
H        -1.32551797752891    5.31979338575742    7.89815100648310
C        -0.53874353867797    3.34487355934224    7.64592054473273
H        -0.53818802774790    3.12584787467234    8.70400807592280
C        -0.09331386841834    2.39779413348921    6.74153535900395
H         0.27094076526197    1.43398790172869    7.07021021814351
C         3.68819634793533   -0.55316031705403    5.98339048645877
C         3.25536400927868    0.70583690018985    6.51674064188803
C         3.22241690671954    1.63803882883994    5.45424379171015
C         3.63912767355245    0.95260612070565    4.25896973578807
C         4.01382883584621   -0.36631504354957    4.60563610364612
C         4.01039461359293   -1.74780434356950    6.82267536530255
H         3.24161666040635   -1.90199390264722    7.57628653520302
H         4.96309066138467   -1.60210310411892    7.33536961664010
H         4.07618076985933   -2.64605909886044    6.21693778893261
C         3.04337750002885    0.98309987897516    7.97144776333678
H         2.47281237838921    0.18322146319828    8.43841586952650
H         2.51131308120136    1.91907510190510    8.11972239274389
H         4.00636829500491    1.05074611572279    8.48067891828353
C         3.04869226023313    3.11865075365982    5.55521731711677
H         2.52351586896707    3.39944791166480    6.46463179928089
H         4.02896791530994    3.59940157340305    5.56097758192915
H         2.48977411485702    3.51058687384192    4.70584407481117
C         3.91064809940057    1.59483101297861    2.93835543084714
H         4.94884972898275    1.92755816439507    2.88160133541805
H         3.73212913315138    0.88400690346181    2.13275510755219
H         3.27016867687629    2.46100979546820    2.78450801359848
C         4.80589950274415   -1.27252968902157    3.72461244270313
H         5.72287924006113   -0.76297166718102    3.42456339306866
H         5.07984977288390   -2.18655053832380    4.24364561024223
H         4.25883544975169   -1.52771667028977    2.81761086989302

