129
CSD_code = FILBAE | q = 0 | S = 0 | Stoichiometry = C65H55ClOP4RuS2 | MND = 6
Ru        9.09408561071378    2.48695734311345   20.95026991677232
S        12.31780405291610   -0.77079847280897   17.53209376647627
S        15.66321114193877   -3.49745960273971   13.69348089232440
O        17.46666789148402   -4.96774225444963   11.65200411538579
P        10.58927869718228    4.20404647733732   21.33866897050319
P        10.48376209441088    1.29779732718849   22.35593144426414
P         7.60010812139938    3.68775020487147   19.63782306713491
P         7.66337654122817    0.72801129917170   20.51231884952852
Cl        7.57189486597887    3.44649569821522   22.56923510444091
C        10.10108948593152    5.67351851885221   22.29870963918822
C         9.94872122031462    6.91746882954692   21.69474708823433
H        10.20901264153673    7.04847477152683   20.65451630781162
C         9.47041509500723    7.99090812508060   22.42314855757039
H         9.36146948431279    8.95354472253230   21.94503895566818
C         9.12358745968998    7.83282666525139   23.75366862577097
H         8.73823666444948    8.67065347902318   24.31612275873681
C         9.26870188234159    6.59632884954912   24.36030174273060
H         8.99475962169105    6.46505503256479   25.39697971456641
C         9.75304326598553    5.52272679978746   23.63869638286017
H         9.85022708240880    4.55889770274252   24.11691715422578
C        11.46876801502301    4.98742751701300   19.94640612931648
C        11.00573188321829    4.78582663718355   18.65477170930859
H        10.14878204804966    4.14461049773177   18.50809332037153
C        11.62984932224193    5.38968819999580   17.57753982137612
H        11.25243353191085    5.22832508932164   16.57728550874136
C        12.72981448645873    6.20314921076860   17.78728813967379
H        13.22539826375801    6.67386145312313   16.95087779033660
C        13.18931564173264    6.42356772866008   19.07712157459367
H        14.03806259184324    7.07129488024146   19.24297752611144
C        12.56108471438037    5.82687962420851   20.15375642846866
H        12.90666515748349    6.03316018764688   21.15788443908655
C        12.00315302778767    3.54112448880286   22.35022061473343
H        12.92249911547256    4.08254458015861   22.11194651288972
H        11.76900500843046    3.69695037685622   23.40967110780620
C        12.15033723932219    2.05267956261978   22.06539463291082
H        12.90893455433848    1.59153300353343   22.70484595485884
H        12.41436759788541    1.90148870346674   21.01405268642021
C        10.52167018282469    1.34496027272085   24.19161733892792
C         9.60923742420812    2.08779156072153   24.93064224859426
H         8.81124357785907    2.62097809858094   24.43239505958978
C         9.70725514940801    2.14318382363091   26.31169672954267
H         8.99135776347002    2.72575865980206   26.87320951800413
C        10.71267340848732    1.45554094768780   26.96624474904774
H        10.78855153956313    1.49738394057756   28.04297710711862
C        11.62224309856884    0.70533947631033   26.23563245192435
H        12.40545736135414    0.16082743881671   26.74329415270677
C        11.53011309968073    0.64981114629744   24.85900944799462
H        12.23396183829125    0.05053307256932   24.29673594692051
C        10.77866983122392   -0.48015973040271   22.09923258455472
C        10.16697756017321   -1.40746194114582   22.94056177088498
H         9.51881712993790   -1.06758078086267   23.73703211653702
C        10.39649593548214   -2.76016163403226   22.77267755661584
H         9.92558678384956   -3.46960785004926   23.43836021519189
C        11.22739430825232   -3.20415602714908   21.75716285997085
H        11.41363920648270   -4.26104324955921   21.63357163610236
C        11.81655858015854   -2.28916506154232   20.90150501206102
H        12.45567587745609   -2.62730397785358   20.09943117299484
C        11.59493720116970   -0.93493691795706   21.06959153499733
H        12.05396308279395   -0.23011758685539   20.39512343790662
C         7.21774206237331    5.43604232491356   19.97325694718739
C         6.27146327482309    5.83691381675623   20.90945968311209
H         5.72477694170018    5.10392356795210   21.48230123364658
C         6.03712728249013    7.18332940932497   21.12478629564317
H         5.30420899015462    7.48556126734738   21.85857605766492
C         6.73069034940161    8.13923538475397   20.40357046487134
H         6.53668133681694    9.18900862287286   20.56901852777120
C         7.67364652971852    7.74594499658195   19.46816989074465
H         8.21910947770296    8.48736024606112   18.90153121926015
C         7.92418511413834    6.40340313599575   19.26077210774816
H         8.66513806749065    6.09728907459001   18.53330312419795
C         7.56317903521071    3.74109404276147   17.80143596847087
C         6.57883359925112    4.48624304864891   17.15590853313240
H         5.87921190646257    5.07269665426389   17.73692484072525
C         6.50081525525836    4.49238880133830   15.77657917918255
H         5.73556795701812    5.07592743804041   15.28530809473482
C         7.40037701684831    3.75371341423437   15.02304082533263
H         7.33685940813858    3.76229218137266   13.94485963541386
C         8.37870856487991    3.00871623257198   15.65695785494043
H         9.08432854200476    2.43021002609657   15.07806022514267
C         8.45894843508380    3.00230105058643   17.03953865701243
H         9.22859504728441    2.42601470067699   17.53572357129239
C         5.98459208417027    2.80627788713498   19.85114512418431
H         5.67169135208577    2.88010281255516   20.89705642565939
H         5.22018491422204    3.25635620047874   19.20894327074856
C         6.23967399582692    1.34866566560790   19.48915114056503
H         6.51713005604005    1.26930884454879   18.43184000166999
H         5.35275129922086    0.73385367967937   19.66712806073790
C         8.22939349578550   -0.70203286323569   19.53548957517774
C         8.56250093228682   -0.52575259727997   18.19514467166976
H         8.42557414769652    0.43819504423532   17.72906560782094
C         9.06816856334989   -1.57585637495610   17.45378985379287
H         9.32215442856767   -1.42666703430571   16.41442874104765
C         9.25288399903597   -2.81600910186309   18.04194043120886
H         9.65261287111894   -3.63535921032681   17.46303919873251
C         8.92353427488311   -2.99935936059961   19.37311111961027
H         9.05987704865914   -3.96483846237341   19.83786586332636
C         8.42113669707162   -1.94907082281101   20.11949310232121
H         8.17533554236947   -2.10220519686583   21.16012889341020
C         6.78639298429626   -0.10446976087374   21.87543480532903
C         5.76786476501972   -1.02311627834951   21.62651052323290
H         5.49279735839268   -1.26688278287120   20.60871674755888
C         5.12731385757299   -1.64441416524989   22.68089374163179
H         4.33748792683981   -2.35544885058869   22.48481598256857
C         5.49632277604503   -1.36270490733940   23.98827386672649
H         4.98802103177296   -1.85011444270347   24.80745277318324
C         6.51723156390046   -0.46332041563350   24.23971595707721
H         6.81403142695530   -0.24431088092431   25.25541792034692
C         7.15955910031780    0.15990231123790   23.18438192450455
H         7.95292141098183    0.87121761527156   23.36741624407849
C        10.32398507101319    1.78688782150823   19.55227710349072
C        11.08870201757902    1.38614933215947   18.68945603562015
C        11.93321541631367    0.92665180710119   17.68895287310048
C        12.56421011846254    1.66861062442735   16.70977382457805
H        12.45616140711621    2.73772742404920   16.64505485640240
C        13.33844223533293    0.89852746912585   15.84671400001183
H        13.90106156163015    1.30390456201226   15.02330953255380
C        13.32585203131886   -0.45327003298909   16.13572987526775
C        14.00516439152360   -1.48223831337619   15.44641529334552
H        14.60895774575150   -1.16738488203054   14.60376259530070
C        13.95264468749062   -2.79985544477189   15.76041210136805
H        13.34862319121160   -3.12171563811200   16.59999497490527
C        14.64298399078881   -3.82145874897639   15.06118581624700
C        14.61538128466762   -5.17934861361742   15.34690215590475
H        14.04024354276792   -5.58630078384678   16.16009487370633
C        15.39573442401322   -5.93991242588282   14.48659522932090
H        15.49936399436384   -7.00926509378923   14.55104637472720
C        16.04058541253496   -5.18861765002121   13.52162419120996
C        16.91584659321743   -5.65213035260017   12.48644722041594
H        17.05887172331878   -6.75340398764984   12.50886496811953

