44
CSD_code = FILBEI | q = 0 | S = 0 | Stoichiometry = C21H15MoO6P | MND = 6
Mo        6.78978745889954    3.95087233124896    9.51469921468334
P         8.49805071375058    4.57900223604074    7.97697425359707
O         7.99894512084482    5.14685994706936    6.55260719311410
O         7.05755946040054    1.02009642432052    8.52270896282027
O         9.01535531901380    3.50730789682722   11.63205818409217
O         4.58435859026746    3.16489529345444   11.54134013655634
O         6.65139607328112    6.92052870101820   10.40968668678514
O         4.70286395574678    4.51252363542032    7.28482319199969
C         9.05243923747710    5.08575145861523    5.58937879381029
H         9.73481450278934    5.93045570348999    5.74124038720792
H         8.58921612745421    5.17329477360558    4.60463254807890
C         9.80423239812259    3.76018599531398    5.77285294393588
H         9.33486716885654    2.98114923751963    5.16557948722957
H        10.84609581055939    3.86899172484420    5.46815689230765
C         9.67207537524093    3.41013702614947    7.22992129518982
C        10.19238037511656    2.41115659972627    7.95381713068454
H         9.88186394515788    2.37793361058598    8.99653540830009
C        11.11899257078998    1.35166748945813    7.59620620585513
C        11.55346254973733    1.08301574046799    6.29640164853190
H        11.19460526142229    1.67056017699529    5.46909146922719
C        12.43502367534118    0.04756779476920    6.04812709724721
H        12.75660394370763   -0.14599284531699    5.03511323283382
C        12.90501860693329   -0.74187867302382    7.08412745258400
H        13.59401237996919   -1.54848578190248    6.88327582366702
C        12.47948676103001   -0.49284818792872    8.37900291258985
H        12.83507895975854   -1.10674804331058    9.19328311572342
C        11.59670418320318    0.53775190037785    8.62983567034596
H        11.26602404331234    0.72369169783591    9.64208261797801
C         9.63024517818123    5.88084834463707    8.57887595005036
C         9.24152539286959    7.20481131245914    8.40072619771281
H         8.33388066549717    7.41990610804343    7.84904415659897
C        10.00891881027729    8.22851619844136    8.92465880415085
H         9.70747683225206    9.25590375018360    8.78283660414142
C        11.15861213095183    7.93280312414952    9.63963012040321
H        11.75486387826910    8.73154439283713   10.05507253773758
C        11.54248062329110    6.61468063134666    9.82671214262074
H        12.43684392379478    6.38664695127248   10.38767718174860
C        10.78078267075616    5.58695128721886    9.29961353738953
H        11.07849218794007    4.55704172633479    9.44201636270113
C         6.94508352094082    2.08866086731991    8.89976863870629
C         8.18618039743931    3.65647375553885   10.86352861983256
C         5.39530145405030    3.45219099244019   10.79508925884818
C         6.68657159811107    5.83044968500925   10.08365457251213
C         5.45082616718890    4.29592700907677    8.11203535787415

