53
CSD_code = FILFAI | q = 0 | S = 0 | Stoichiometry = C20H20HgN6O6 | MND = 7
Hg        3.16037596132512   12.87693721015697   30.00600651926135
N         3.47175702546480   12.68148438822678   27.65909013460042
C         2.89152113887223   13.54958839357934   26.83753048432957
H         2.13220408137183   14.18120118872155   27.27765879010313
C         3.20642029266243   13.63395477487722   25.49099689506609
H         2.70879682241361   14.35673893249606   24.86343943853556
C         4.16704157104867   12.77967719358061   24.97441899618871
H         4.44303255363675   12.82264431023258   23.93095420017114
C         4.76156981186925   11.86447594069907   25.82775231541345
H         5.51092289593642   11.17467573590641   25.47260224352534
C         4.38125991495989   11.85114237998334   27.15941045099914
H         4.82656050153288   11.15082863982745   27.85435472108820
N         2.71915479732875   15.19445152717643   30.26794693618108
C         1.83288295820474   15.62209391579712   31.16119223282445
H         1.46987108471851   14.88744698339793   31.86836401556864
C         1.37793609988906   16.92955335313056   31.20351932746839
H         0.65175755825766   17.22546416203967   31.94418678452089
C         1.86846478562195   17.83587876858987   30.27765637345582
H         1.53193198897201   18.86231915542945   30.27707657273550
C         2.80413009244581   17.39443141502944   29.35621729955445
H         3.22154602750793   18.06527845537170   28.62165668000469
C         3.19939886949719   16.06699030456189   29.38852941565571
H         3.94319574736312   15.68548972113799   28.70269571049572
N         3.78582460476115   13.08496790429679   32.29013775438406
C         3.30923787732009   12.23100651742684   33.18965496701910
H         2.49054258966606   11.60641056124004   32.86028447968149
C         3.80113939414932   12.15070032947384   34.48235928006060
H         3.38311026791191   11.43884603515331   35.17693172606667
C         4.83412946203619   12.99394501659207   34.85805464166312
H         5.24776619848355   12.95316363306601   35.85507432422135
C         5.32156514334774   13.89428296493506   33.92465895368945
H         6.12104692054973   14.57540426995712   34.16995579221690
C         4.76618014245377   13.90444895361897   32.65603995305824
H         5.12219985939149   14.59511498459583   31.90249563144954
N         2.66206657754992   10.56617466872212   29.79258349475289
C         1.67160925675411   10.15095591062754   29.00954165579371
H         1.24223438884368   10.88949128698830   28.34482190400586
C         1.19272246776183    8.85155887470098   29.02694659009354
H         0.38107157943863    8.56585722913252   28.37644245956355
C         1.77099848789361    7.94020619302858   29.89544755403423
H         1.41823553056312    6.92025485737598   29.94156889584943
C         2.81412726477688    8.36833234097291   30.70049038276616
H         3.30138937657714    7.69292416082547   31.38624475152812
C         3.22572206788605    9.68842874288031   30.61550690884788
H         4.05039255336845   10.05922386402885   31.20857056206478
N         6.00617548604006   12.85639233545214   29.81801448672746
O         5.35702319646293   13.87861167861972   29.54079081741191
O         5.38115143028166   11.84508294368693   30.17859919473733
O         7.20900060734044   12.84586689682198   29.73861648078804
N         0.31245738342182   12.87675988934566   30.19580420470416
O         1.01910307219300   12.54710763898970   31.16323978655495
O        -0.89035565221353   12.86684376741051   30.27580814183669
O         0.87999988408982   13.21578870000813   29.14435768675723

