36
CSD_code = FILFIR | q = 0 | S = 0 | Stoichiometry = C17H11BrN3O3Re | MND = 6
Re        7.18948884856774    1.81059919636243    8.15694415072900
C         6.38887845788032    0.90631093239423    6.61277700602336
O         6.01847249589762    0.40134517994681    5.65698425354250
C         7.02444647493298    0.17009852993632    9.19506884805712
O         6.92212309671813   -0.81568321230118    9.77525794739520
C         5.50588164913341    2.48837621460170    8.83735485167423
O         4.51673630879721    2.91295272177080    9.24079765839057
Br        9.49516111220361    1.14366745572033    7.15985403249437
N         8.94431949316816    2.92213907058181   10.67120872761286
C         8.36643006682684    2.99986686984619    9.46345334973837
N         8.74982113674065    4.21417895291591    8.96214174140007
C         9.54532968380591    4.87759709319993    9.86917115998703
H         9.96232944178482    5.84616920240729    9.69260604924343
C         9.65813369457078    4.06588159521492   10.94115817336383
H        10.19653046703878    4.19283892703508   11.85777986377011
N         7.57383393696845    3.71969012983082    7.05133931539662
C         8.37684533818973    4.59214852460250    7.67938586816583
C         8.81763405248865    5.76788768599724    7.08116628605254
H         9.47007889467829    6.44151628858415    7.61131679123885
C         8.41400794047559    6.04332041623090    5.78901976436359
H         8.74646865614728    6.94336852531737    5.29603861397698
C         7.58284817301496    5.14117398122065    5.13931297100541
H         7.24890752643648    5.31615935701912    4.13011928111479
C         7.18995230378800    3.99844927361839    5.80791324174136
H         6.54537878838804    3.27249170356396    5.33059607382082
C         8.88641754159663    1.80774213704473   11.54423135435460
C         9.32717842547658    0.56855624394863   11.10186316330434
H         9.71445664911916    0.45821973196314   10.10023084046120
C         9.27652312589612   -0.51406883939560   11.96173408446894
H         9.61141983582366   -1.48048573505807   11.61915607309155
C         8.79893083403523   -0.35698613304764   13.25158787048467
H         8.75813701527267   -1.20450717056970   13.91862289929356
C         8.37444355156444    0.88648123732357   13.69071251180865
H         8.00383393885679    1.00957578631936   14.69709675474075
C         8.41784400673402    1.97570871343839   12.83975449670254
H         8.07837703698239    2.94711941241654   13.16904393099028

