34
CSD_code = FILGOX | q = 0 | S = 0 | Stoichiometry = C14H13ClN4PdS | MND = 4
C         5.56757339904453    5.71162248714898    5.17609885469062
C         2.27862295268880    5.62287380521011    6.23203159768574
C         2.11693944242265    5.16123917538963    8.62239838306937
H         2.67918647181606    4.22546131015513    8.59448610377180
H         1.32520730065153    5.08959943013860    9.36245708978402
H         2.80804008290071    5.95752456009872    8.90198102577858
C         6.36247142808867    5.39860961071625    6.37527740686400
C         6.14317702626541    6.08413199507919    7.56759400796481
H         5.40234617107733    6.86749123311471    7.59959802428407
C         6.87771354252135    5.77226140186512    8.69602091814799
H         6.70444585133660    6.31289911583745    9.61480474733138
C         7.83370345670409    4.77105164508523    8.65209827750927
H         8.40508094679322    4.52759634904876    9.53537991243662
C         8.05089550146331    4.07826907701970    7.47258558412811
H         8.78816619803492    3.28980952837956    7.43590676465881
C         7.32125082277947    4.38731423809913    6.33978977891542
H         7.47481707352965    3.82753225073678    5.42833284484324
C         6.17503103019135    5.96045905031173    3.88635015488012
C         7.55420266358894    6.08608116073255    3.67923324521434
H         8.22766351270733    5.99523740062001    4.51642751137934
C         8.02803544480409    6.34275125847320    2.40827975834617
H         9.08890673119474    6.44214793625176    2.23435981862427
C         7.12570852849754    6.47929501494694    1.35976548089117
H         7.46206134682429    6.67643792407401    0.35532208273974
C         5.77168155576250    6.36940524598943    1.63150388575911
H         5.02023270557527    6.48254462637322    0.85753903670612
N         1.53930377475699    5.44268291298250    7.33252678502731
H         0.53908471462816    5.44635207487092    7.21724151792050
N         3.59018809290347    5.58062847124726    6.33445979519036
N         4.25192835893358    5.77739707639140    5.20077806871966
N         5.31358043293940    6.12042234274566    2.85034494726187
S         1.41873314145471    5.91055875079487    4.74743776334325
Cl        2.43192216053031    6.34942227922214    1.53223470193135
Pd        3.35899813659441    6.05458926085991    3.51415412420322

