41
CSD_code = FILGIQ | q = 1 | S = 0 | Stoichiometry = C8H22CoN6O4(1+) | MND = 6
Co       -4.63043874872673    4.33145001858311    9.45504928183086
N        -4.12709493243356    4.25036533545473    7.74852977975534
N        -6.27678247244207    3.81559549893566    9.02474777186923
N        -5.21108692888366    6.31998702894973    9.31426670385903
N        -5.14449728540915    4.67360895578118   11.57916147803404
N        -2.58871428069662    4.78609943182233   10.12781535595961
N        -4.00817746938396    2.40322914790965    9.79292429280374
O        -4.12309420798575    3.17034470565853    7.21876083301160
O        -3.80599591957518    5.30533368606421    7.27383654365700
O        -6.67392721913097    2.83617449397252    9.59897256451761
O        -6.87171586655717    4.48848384287151    8.22273183157682
C        -5.49963565555805    6.94526445717613   10.61266126434226
C        -6.01566374756182    5.86836083339058   11.56057388652499
C        -3.88568350331905    4.92620845347954   12.31288136701606
C        -2.71761844641679    5.42250858061294   11.45370486449713
C        -1.87888546807990    3.48934934532192   10.19671314051991
C        -2.79277310630109    2.34133044119581   10.61281952452169
C        -5.88312936946018    3.63120063082616   12.30979349982809
C        -1.75564175132085    5.68255334598974    9.30872722394676
H        -4.55070343051059    6.88906502170324    8.78294248457119
H        -6.06528193812638    6.32162042181070    8.74699932484662
H        -4.74549292220434    1.82835142077158   10.20618049277913
H        -3.81671451989413    1.97599475470262    8.88041747602802
H        -4.59543711918250    7.40595268591686   11.01023194702450
H        -6.25665570132543    7.73025039479148   10.52129423696285
H        -6.12697849964220    6.28134949034294   12.57101984562315
H        -7.00451443277820    5.55164879869919   11.21950917137498
H        -4.05317702672117    5.66316681031433   13.10805530901965
H        -3.59077645719532    4.00030239068836   12.80576913341639
H        -1.79431659003095    5.28159071035497   12.03108912637859
H        -2.82326555172761    6.49393115970607   11.28670264490214
H        -1.49977451228835    3.26918627994198    9.19573809426674
H        -1.01941796348515    3.55329558431204   10.87448119465666
H        -3.06011830065778    2.41518311792841   11.66595129071812
H        -2.26035037429777    1.39494282500321   10.47216928464615
H        -5.29692757579134    2.71829389465950   12.37603602695697
H        -6.81435243013084    3.39283704826468   11.80204731609274
H        -6.11905199051598    3.96417533298720   13.32494043978595
H        -1.59887404402996    5.26914748047364    8.31586780672860
H        -0.77723694367158    5.83227409585324    9.77506809611587
H        -2.23392529655028    6.65189204677763    9.19241804903364

