119
CSD_code = FILHIS | q = 0 | S = 0 | Stoichiometry = C44H64N4O4P2Pt | MND = 4
Pt        7.57597802954616    2.86783697845214    4.71811481236173
P         8.25145586880866    1.43360264815357    3.06943749641341
N         6.88303054912397    6.87011094216545    1.48964655196281
O         8.61247014473214    8.08780457690845    1.64127263909991
C         8.09515176084243   -0.35050760308966    3.46834450392016
H         8.42924568905791   -0.96384845453251    2.62790770613991
H         8.75099224241986   -0.54906534103863    4.32093261420689
C         6.34210953814363    3.87681030281359    3.52670324002053
C         5.50876028715622    6.58551147271201    1.35237953673172
C         4.94030374061322    5.45906140756428    1.97165937131316
N         7.27267565159774    8.10736841594361    1.52534892535888
C         5.69252585480111    4.60197460051652    2.79875881845659
O        10.24724467727023    6.49820415299213    1.79646903644567
C         4.73087112347984    7.45895849537693    0.60343686535214
H         5.20515178850988    8.31912059440795    0.15752564364815
C         6.64438078499182   -0.65121857733662    3.84145884674027
H         6.36699749794839   -0.02769929680654    4.70002797717639
H         5.98774841492843   -0.37661847898294    3.01097626642126
C         3.57112527135419    5.23414648887994    1.78293029010342
H         3.12481731231242    4.36826860151472    2.24977361534709
C        10.04232895000261    1.71474752092681    2.79001758818845
H        10.55946683353071    1.26066051158646    3.63889753371908
H        10.39213352653554    1.23585450863682    1.87245675731357
C         3.38225075446883    7.21424619438295    0.43637323356190
H         2.78130452158601    7.88992030537340   -0.15153665522598
C         9.07689892997906    6.77368306148964    1.68293578259444
C         2.80728554766609    6.09416710489344    1.02420700351718
H         1.75399048281497    5.89733966932745    0.89056053137565
C         7.88872151293819    5.99642165105033    1.57001984897766
H         7.76450518414611    4.93840843460490    1.55324283816945
C        11.74306680119894    3.62370177442717    3.02318823343649
H        11.83581024354836    4.68591937956795    2.79201397249020
H        12.39896816794906    3.07345389847725    2.34412266037679
C         6.42229413679625   -2.12090997317743    4.18596452020352
H         7.06833761002523   -2.40309287501156    5.02002526092223
H         6.70995031571558   -2.73784230456785    3.32968649082000
C        10.29227579660732    3.22543244153149    2.76868728674732
H         9.98410592131726    3.64028786593549    1.80765719522230
H         9.66603427830236    3.69323163650593    3.54875118119990
C         7.49544835128800    1.61768119038868    1.39534656176946
H         6.41381565558136    1.71161271408619    1.52841079624115
H         7.85308122110763    2.58136470845008    1.01840960127844
C         7.81618077037854    0.51890789036654    0.38745718647017
C         4.96933975136479   -2.39978446181060    4.55102180310785
H         4.83486275681903   -3.45158331342817    4.78991198309145
H         4.31194969508893   -2.14677900151561    3.72145040242558
H         4.67066122109972   -1.81378337825695    5.41637663978409
C        12.17470670504875    3.38314099631702    4.46454507178871
H        13.17704958893904    3.77130969454115    4.62873818335573
H        12.17886177170277    2.32183230355229    4.70521467240129
H        11.49289712126885    3.88496351162922    5.14816871159325
C         7.36289258637664    0.91229761487946   -1.01803351437602
C         7.64687803559141   -0.19122680191191   -2.02961008434303
H         7.32130300252784    0.10854367163706   -3.02248388007632
H         7.12136216212620   -1.10408373357783   -1.75769480451499
H         8.71216155722889   -0.40833952826645   -2.06953113987719
H         6.29174949380618    1.12682907734265   -1.00401931292725
H         7.31180686217524   -0.40611761502271    0.67280607187381
H         7.87959737124843    1.82534259812232   -1.32293374995794
H         8.89145855165439    0.32461609597369    0.37088366727589
P         6.90122390235727    4.30215463698207    6.36658819785681
N         8.26757903425696   -1.13504087213695    7.94572096148880
O         6.53837102586729   -2.35281099970911    7.79214232826121
C         7.05785225573431    6.08616269728032    5.96726645702878
H         6.72444056427389    6.69991929841760    6.80767945425492
H         6.40156314773068    6.28466442896359    5.11501348593823
C         8.80976938222679    1.85866439776833    5.90945560955739
C         9.64172470854635   -0.85032566479669    8.08405482800715
C        10.21052816621380    0.27628416280863    7.46537508460289
N         7.87806281956880   -2.37230861904057    7.90922898534246
C         9.45886217893571    1.13344785189562    6.63783308061691
O         4.90358353221254   -0.76331207203197    7.63624041903645
C        10.41915324413579   -1.72388040826412    8.83336603484051
H         9.94459020716946   -2.58415603558605    9.27876355031301
C         8.50841109828859    6.38654855925927    5.59309369048598
H         8.78514262429176    5.76257454646183    4.73465012622752
H         9.16552773325038    6.11225770754754    6.42329036739848
C        11.57956553284161    0.50122673890828    7.65508396397913
H        12.02614159429641    1.36721091355601    7.18869251446085
C         5.11036996334844    4.02201228626008    6.64699040239185
H         4.59312392730840    4.47649128185919    5.79838218355223
H         4.76122469933185    4.50093891661468    7.56479735767872
C        11.76763637668386   -1.47911379949002    9.00140285562768
H        12.36824166055524   -2.15484323913274    9.58959900177923
C         6.07385305387793   -1.03867683308981    7.75080089946731
C        12.34293124753418   -0.35888810226816    8.41416105333226
H        13.39612292608152   -0.16203451483828    8.54857805267413
C         7.26189147526831   -0.26138909556381    7.86482884566998
H         7.38599598123314    0.79662433447443    7.88201989598408
C         3.40857805858487    2.11403905272948    6.41492426964511
H         3.31582787351783    1.05158338902472    6.64497732069859
H         2.75364335126926    2.66366809816420    7.09543624262232
C         8.73067251840565    7.85598755672812    5.24763662677715
H         8.08417946562248    8.13782242154959    4.41381114264668
H         8.44363064540595    8.47344659385397    6.10373555361272
C         4.85982806479792    2.51144280821459    6.66813561287988
H         5.16875637622396    2.09619111121513    7.62875988678420
H         5.48511572666621    2.04359428948656    5.88733206450936
C         7.65813151700569    4.11859187605729    8.04033013921857
H         8.73965227665198    4.02420397958899    7.90663839578853
H         7.30042181196088    3.15516587577233    8.41782928556134
C         7.33851482200815    5.21780866048055    9.04808219057131
C        10.18344272874684    8.13445135908105    4.88154982740358
H        10.31799641447361    9.18607969362278    4.64193507533299
H        10.84125692508617    7.88180755572286    5.71089478487423
H        10.48150073745306    7.54786575979034    4.01637878440749
C         2.97519595084755    2.35633233060150    4.97436187734858
H         1.97280075833024    1.96802373735543    4.81077237809760
H         2.97035062777382    3.41796410827458    4.73513933203961
H         3.65643192696167    1.85567891351335    4.28930073479997
C         7.79296378952741    4.82506390050782   10.45337802119499
C         7.50979427840191    5.92905664146417   11.46466936694587
H         7.83625421742580    5.62982170998758   12.45741149323403
H         8.03500765198365    6.84181142922853   11.19182213005606
H         6.44453015257435    6.14611377165144   11.50539597978142
H         8.86409867679368    4.61054826933234   10.43856090232370
H         7.84278272043794    6.14262366592985    8.76186604804275
H         7.27654259079588    3.91214364347369   10.75912985981964
H         6.26328330575585    5.41226832843494    9.06549409788019

