58
CSD_code = FILKIV | q = 0 | S = 0 | Stoichiometry = C21H31IrN2O2S | MND = 8
Ir       -3.65381226868932   -2.45197717019327  -11.18088718820247
S        -5.64440408190087   -4.53792839984749  -12.12236146131943
O        -6.76155208292784   -5.37599668916836  -11.75331327708781
O        -4.80300630930679   -5.02136453817061  -13.19148629010517
N        -4.58319879701521   -1.98665442578916   -9.17988485318159
N        -4.69624934831289   -4.20543398943120  -10.82909798888113
C        -5.74577065680611   -2.89029664491151   -9.05321439037343
C        -5.37661607904866   -4.28813217823712   -9.56239168286950
C        -5.02524321242490   -0.60746491318739   -8.96975602085584
C        -3.59266085955095   -2.31352600602282   -8.15165473513087
C        -5.38878257364208   -1.88058465490862  -12.08455292905019
C        -6.21454319991605   -2.89630325965667  -12.55485746549400
C        -7.38601305957285   -2.66059194021139  -13.23920836304756
C        -7.76171619462030   -1.35144169389408  -13.49452512452583
C        -6.96404220919993   -0.30145462883697  -13.05942993576065
C        -5.79005476950718   -0.57708756471668  -12.36044791660210
C        -7.34394114575356    1.12425259333307  -13.33671978116559
C        -1.79460502755484   -3.49286750355197  -12.04584796809402
C        -2.41512079459651   -2.56289129991213  -12.96509640638859
C        -2.23350780726941   -1.23959857741111  -12.43390887592555
C        -1.62221328297184   -1.37983096709656  -11.15591555566437
C        -1.32511515733392   -2.77465754964074  -10.93509519896646
C        -1.66513832858826   -4.94917041712387  -12.32094319741670
C        -2.81864249604596   -2.91286619312124  -14.36022839658180
C        -2.43210464050684    0.04217188318193  -13.18307392555604
C        -1.10838030612988   -0.24088435383159  -10.32750901271592
C        -0.49820595763399   -3.32970396002378   -9.81697884767895
H        -6.08675853730076   -2.92542514866257   -8.00906145553821
H        -6.55000317735517   -2.49450554037248   -9.67722059559772
H        -6.28277581119204   -4.88785539846029   -9.69349173680849
H        -4.73061515796442   -4.79957177025496   -8.83820948179681
H        -4.17698663054062    0.06781747130785   -9.06473763307851
H        -5.76873091324758   -0.34238511266488   -9.71753517496414
H        -5.46344556350568   -0.48575689221248   -7.97182159360007
H        -3.20448321358965   -3.31463335127762   -8.31270710043266
H        -2.76979648519885   -1.60401573875907   -8.20021572056996
H        -4.03919724381087   -2.26132927210283   -7.15045751372925
H        -7.98652109812861   -3.49768125958788  -13.56000086277930
H        -8.67417155285648   -1.14582170859300  -14.03528331428553
H        -5.18549392293506    0.25916456340619  -12.03492838874324
H        -7.37973292541757    1.69908893817754  -12.41226663686677
H        -6.60703345478687    1.59096345224010  -13.98953725876568
H        -8.31598550228398    1.18075543815851  -13.81940618095722
H        -2.62807608802043   -5.33962282573684  -12.64849943898029
H        -0.94167769642503   -5.11358248929390  -13.12088600079345
H        -1.34179874045306   -5.49573535600982  -11.43914030613021
H        -3.36230460469557   -2.09582457796117  -14.82741284553635
H        -1.93419749101297   -3.13388205179754  -14.95996305940591
H        -3.45683521297872   -3.79460206711131  -14.34695241147566
H        -1.55562370771576    0.24537212980471  -13.80130969291088
H        -3.30020953642707   -0.02075365545474  -13.83421181811947
H        -2.56786157076874    0.88099301900752  -12.50429736601885
H        -0.93161888767490   -0.53914790136574   -9.29594377147992
H        -0.15923315379621    0.10864816813694  -10.73794018055683
H        -1.80150504334519    0.59903026927841  -10.33334642615661
H        -0.82481016099688   -4.33465083388411   -9.55630716588747
H         0.55055139862278   -3.38534088349955  -10.11662945708532
H        -0.55632766731306   -2.70882457211606   -8.92499262229961

