36
CSD_code = FILLUJ | q = 0 | S = 0 | Stoichiometry = C17H11ClN3O3Re | MND = 6
Re        7.11189064187956    1.82307008892415    8.13605172154871
C         6.49676797611947    0.87166856536665    6.53932418583481
O         6.27912688618590    0.33634920363091    5.55457844110124
C         6.95348938503702    0.17532709175136    9.15809200558593
O         6.84825160729097   -0.81785160007754    9.72585289665068
C         5.35804343507706    2.41241493344495    8.71961786708038
O         4.32865976086778    2.80265168132678    9.05795217598197
Cl        9.34145484746516    1.39222383524768    7.33016436005864
N         8.85485784493679    2.92961561751025   10.65451521143397
C         8.25171202828096    3.02050240312507    9.46106560902463
N         8.66215183771021    4.21868088912532    8.94582498226897
C         9.50108553222809    4.85987109738612    9.82910595624413
H         9.94625504921594    5.81316667311914    9.63769118838217
C         9.61373086109150    4.04990796437898   10.90210104289916
H        10.17860807575014    4.16226788624523   11.80475295370715
N         7.48249950284045    3.73086911308804    7.03613395470270
C         8.29835796814274    4.59130723790965    7.65913907081783
C         8.76033514646638    5.75600903499276    7.05370017456281
H         9.42060365911179    6.42509789599503    7.58022663636795
C         8.36667707649672    6.02763159699205    5.75747980056006
H         8.71698117826877    6.91789790510611    5.25857921717125
C         7.52118838442439    5.13599151213926    5.11280741501199
H         7.19379706257308    5.30920020943713    4.10098623828305
C         7.10516675905035    4.00629905977147    5.79166702915185
H         6.44419278325478    3.29023101434635    5.32233216527629
C         8.81097726083988    1.81263209233613   11.52390106746958
C         9.21846528614279    0.57170750301414   11.05518717513555
H         9.55235653531837    0.46939425733448   10.03321463343575
C         9.19723266241438   -0.51516336213664   11.91070802424333
H         9.50554679131092   -1.48351639176757   11.54895244138315
C         8.78301421974677   -0.35999056961602   13.22270959187522
H         8.76646685418758   -1.21041225526507   13.88722215340615
C         8.39093079983332    0.88485317037507   13.68714971157893
H         8.06931720449627    1.00556750622943   14.71058636273657
C         8.40519060258684    1.97848372897791   12.84054176948153
H         8.09151649335701    2.95124341023520   13.19058476954591

