113
CSD_code = FILTUP | q = 0 | S = 0 | Stoichiometry = C57H47N6OPRu | MND = 6
Ru       -0.51182429962529    2.42436146182475   14.84847942717335
P        -0.11467330169242    4.56340927839979   15.59455205709295
O        -2.66378557400555    3.11174918964454   12.89796448881260
N        -1.80004141089637    1.50844491506778   16.26068929700434
N        -0.88265140777610    0.37809955334761   14.61481070371084
N        -2.11958847526466   -0.87748403674526   16.19008405269082
N         1.24070541489778    1.70852754607157   15.75832317598303
N         1.25541888819808    2.49632814932698   13.70018026887755
N         3.27171359205755    1.50782955100858   14.56385741066878
C        -1.84988102681972    2.89389263154360   13.68721570723462
C        -1.60102030967079    0.31164962026329   15.72856835992537
C        -2.80580363348594    1.84322547677737   17.14934620456059
C        -4.09396005588563    1.30654502612578   17.06359701916531
C        -5.06991514541816    1.69908902977236   17.95740076393040
C        -4.79310382463801    2.63655803125196   18.93862920017066
C        -3.52664109578929    3.19339965764017   19.01416598947710
C        -2.54385297340017    2.80221227419929   18.13009177810665
C        -0.26096731900797   -0.66363637913261   13.96038756251854
C        -0.03983907035856   -0.51694045095371   12.58516476084315
C         0.60826230706732   -1.49793802624385   11.86526998794884
C         1.06012225637819   -2.64614783373835   12.49826114490927
C         0.85772187072618   -2.79758976317917   13.85948660762550
C         0.20366693318312   -1.82455232238409   14.59159287610185
C        -2.52591706152875   -1.19952377078735   17.48136774095028
C        -3.46299890019785   -2.21452495224796   17.66082866385890
C        -3.88173671660383   -2.55535427975193   18.93202174221333
C        -3.37077556435853   -1.89464106477454   20.03664716614902
C        -2.41831739068911   -0.90514306253379   19.86078169725240
C        -1.98737723662868   -0.56081276958249   18.59486648353553
C         1.94168593450587    1.87092334685109   14.64367868121021
C         1.58013958666366    0.86611997843215   16.79905254277772
C         2.27141478750310   -0.34065034889365   16.62838172643211
C         2.53602404451427   -1.15187968376633   17.71505759368871
C         2.13097269383521   -0.78674640421596   18.98776123092714
C         1.43691327684719    0.39980735074766   19.16592077448762
C         1.15837318124848    1.21316006555181   18.08788690084858
C         1.76741700992640    3.16255086124488   12.60433967128546
C         0.99327122700288    3.22388762714740   11.44227774361529
C         1.44775797378913    3.89564327461779   10.32765454541164
C         2.67709551961553    4.53461709361954   10.34937750642996
C         3.43903844988307    4.50573474709416   11.50451089942881
C         2.99547232912571    3.83061205899150   12.62312995233775
C         3.99401934313043    1.10889163572713   13.44295512122531
C         3.36918744395860    0.69550609760799   12.27021195571216
C         4.13036888218874    0.31749138462759   11.18153056915232
C         5.51312811372124    0.33224229139283   11.24712109159689
C         6.13653069368073    0.71506389871193   12.42317124221135
C         0.66845248282853    5.71813486257250   14.40862807455177
C         1.74079482779690    6.55455994693554   14.69368306080779
C         2.24029576676252    7.39611025684957   13.71434855427801
C         1.66811337443534    7.42175143496136   12.45473436184174
C         0.58325712599394    6.60746676022733   12.17252215358284
C         0.08954182533793    5.75810420776054   13.14278471816822
C         0.99723747076107    4.66895833924779   17.03395333884895
C         0.54807553604433    4.96496017821766   18.31636888486839
C         1.41634933798194    4.88803907775623   19.39255382235283
C         2.73413796054887    4.50970819211901   19.20148460725897
C         3.19156303401602    4.22112635323746   17.92488076020413
C         2.32933711319389    4.29871286744455   16.84868550819938
C        -1.52545369734370    5.60736701258230   16.09061643841626
C        -2.81611148736423    5.10127451150102   16.01335499505404
C        -3.89241682595630    5.88338968153058   16.39454342565635
C        -3.68392097072419    7.17624836182378   16.84416179425592
C        -2.39795319158221    7.69199318269135   16.90547346634244
C        -1.32025014650488    6.91325773686864   16.52923407529548
C         5.38562347420471    1.09952776283204   13.51624716509556
H        -2.20506307428527   -1.60651269751230   15.49480612472279
H         3.72007080907964    1.35503711006352   15.45795553134024
H        -4.32784215559287    0.59703261243706   16.28310818548247
H        -6.06009385734999    1.27311512090093   17.88276137265446
H        -5.56227957717241    2.93772021001181   19.63391786384710
H        -3.30652327866101    3.93537983889619   19.76857919513205
H        -1.55256776533495    3.23053858988546   18.17268806840512
H        -0.39094564777932    0.38886133484292   12.10925049258760
H         0.76752071689793   -1.36785239789483   10.80445637664315
H         1.57301320053897   -3.41196546060311   11.93626048414287
H         1.21934998533768   -3.68255884321010   14.36412963454747
H         0.08953309084188   -1.94526626647655   15.66013748842494
H        -3.86197422794261   -2.72971922562802   16.79793394509411
H        -4.61256836896271   -3.34025504995893   19.05999273813992
H        -3.70494004216711   -2.15833823027346   21.02850200921662
H        -1.99856796165029   -0.39929129876685   20.71740581808400
H        -1.22357598341415    0.18895535057807   18.46593082548031
H         2.56228130651512   -0.66433143255925   15.63792178229589
H         3.06053538433294   -2.08453681719728   17.56119128039013
H         2.34384954663341   -1.42615623117152   19.83115304381239
H         1.10576767201975    0.69014151183687   20.15287928046353
H         0.60780150864696    2.13364380762469   18.21911920193356
H         0.02713572463613    2.73879731580055   11.44230267480614
H         0.84036779185215    3.92341147490277    9.43441509542528
H         3.03435517370138    5.05948721616154    9.47613129146894
H         4.39001288846902    5.01772213564951   11.53757806228091
H         3.59616777795879    3.83550460682861   13.52108174288294
H         2.29355029630082    0.65227544012327   12.21918559204691
H         3.63459336701205    0.00173191812351   10.27587755249255
H         6.10226014527722    0.03761837300148   10.39210371480339
H         7.21465882505005    0.71537056090953   12.49025967590202
H         2.19303524836121    6.55183352843159   15.67579195284089
H         3.08083931717453    8.03678688254472   13.93971199615802
H         2.06535395538855    8.07744619752650   11.69432197383684
H         0.12967884952893    6.62999352075611   11.19326195284821
H        -0.75039432253779    5.10730267068442   12.93509011212248
H        -0.48050312095515    5.25963153655951   18.47251936593352
H         1.05903162112801    5.11870197150391   20.38574540390403
H         3.40574307727381    4.44074835145212   20.04431759526046
H         4.22240662219191    3.93328499690271   17.77393124749370
H         2.67858797108178    4.07907765116951   15.84794729561720
H        -2.96286122786177    4.08958417234832   15.65602735573656
H        -4.89310634019375    5.48126075773310   16.34213756738779
H        -4.52282179498687    7.78718603996114   17.14348182044161
H        -2.23727530312657    8.70395103630598   17.24820484901687
H        -0.31572778436757    7.31203281651709   16.57381134973189
H         5.87190699151259    1.39591860961984   14.43577072438308

