113
CSD_code = FILVON | q = 0 | S = 0 | Stoichiometry = C40H64Cl2N6Ti | MND = 5
Ti        5.02492354955263    3.03933162618237   11.72562472472982
Cl        3.31781534290319    1.60222086213426   11.91545952543533
Cl        3.84714502515502    4.40913810974696   10.45528642393990
N         5.29932803647668    3.08243633484525   13.70982617498332
N         6.69852120963152    4.76375460328062   14.67810690871338
N         6.21501091112718    1.55413503440505    8.38030653193735
N         6.07027696570544    2.11629108111640   10.63706170518063
N         5.93645228002094   -0.12352591110017    9.97558288978406
N         6.41859803943564    4.38105019749377   12.33982639964479
C         6.16174625958669    4.09528094686499   13.61337634418799
C         7.63916850027940    4.83444407752202   11.82172531950950
C         7.68189611603873    6.03456649297804   11.08910846418710
C         8.88518030655428    6.45038991483565   10.54038152058764
H         8.92428649092388    7.37053820924561    9.97750138766149
C        10.03975445159570    5.71065497042639   10.70806704134556
H        10.97321472510922    6.05429758210263   10.28764304875426
C         9.98984302116959    4.51961872393129   11.40620281057655
H        10.89377800623270    3.93933783025259   11.51969351728341
C         8.80439665975178    4.05352812977347   11.95911835818411
C         8.79528617618153    2.70210292102133   12.64468064560329
H         7.76245358110556    2.45484345702595   12.92938743023913
C         9.26642846360449    1.61279200408190   11.67603882508484
H         9.25404630195973    0.64228803205433   12.16932598025237
H        10.27781387436571    1.80369249609234   11.32530757984893
H         8.59592322719041    1.57739864214101   10.82036989381243
C         9.66524548004527    2.70062244712556   13.90436954916573
H         9.62210482254332    1.72661123356004   14.38783157718278
H         9.32102369986634    3.44989193621144   14.61111235093198
H        10.70261858399996    2.91416672392735   13.65601801167375
C         6.05539365849977    1.24104097719473    9.71537297201188
C         7.16411183122811    6.13117230913544   14.54269249770533
H         6.68687058034082    6.72769228863030   15.32913014631405
H         6.81195243018550    6.50194821583073   13.58147693679019
C         7.06454913080011    0.74382179372524    7.52980459476498
H         6.68261411704137    0.81137787310977    6.50487038436810
H         7.02335515844916   -0.29417128419486    7.85621736794425
C         6.03463105806634   -0.52610329248662   11.36840181481303
H         5.07876545121800   -0.37069538974623   11.88787248392835
H         6.79510873150624    0.09559923206904   11.85036729175794
C         6.80460955326596    4.14934208069076   15.98816172355479
H         7.84953624738105    4.22533834593717   16.31366347558906
H         6.56484312049760    3.09310092539757   15.87435436525892
C         6.24517245179500    2.95780517163905    8.01751861045823
H         5.56399689330199    3.49398502283481    8.68549931253513
H         5.87676103852359    3.03743302461728    6.98847032491706
C         4.44241723759731   -0.59264607716400   14.68777336350178
H         5.08840751592876   -1.39571494839189   14.33930450837298
H         3.78233835482518   -0.28878016466287   13.87836908593129
H         3.83287415521028   -0.97163883097653   15.50472744539966
C         4.86776376991660   -0.84157173115804    9.29587871053416
H         4.75978699437053   -0.45753906158939    8.28102649611372
H         3.91933872797747   -0.66972484493409    9.82894538676337
C         6.62026250576965    8.30808720692328   11.35499973741806
H         5.67209762380833    8.83871952822200   11.30131983677092
H         7.33670114013928    8.83363225770955   10.72826814350443
H         6.97856555339546    8.34689624634549   12.38190778021582
C         6.03957739000322    6.85096389130178    9.39917927907002
H         5.13876646786894    7.44159750689495    9.25073043633055
H         5.83410386057385    5.83248376837086    9.08179938397700
H         6.83384203390576    7.26317403165183    8.78027614113141
C         3.21886085146774    6.41953477354657   14.71502873220403
H         3.11443840171479    7.22592540807816   13.99194704505946
H         4.16074493400748    6.55165785123678   15.24346930301775
H         2.40681710352409    6.50042683423397   15.43400864259798
C         5.91210582482367    4.75989230610806   17.06662782059131
H         6.02823989706315    4.18800607620620   17.98359990260941
H         4.86791320527923    4.72209675227260   16.77071644080852
H         6.18867274926857    5.79092380997757   17.27351521274106
C         8.67722453884609    6.31495081418009   14.63633328797296
H         8.91226799139941    7.36908293654353   14.51285579988222
H         9.18334799505997    5.75776873235833   13.85348687162589
H         9.05477744938354    5.99619489067275   15.60503097153571
C         1.86597436166377    4.89661105189925   13.22878541313933
H         1.77198472877433    5.66799000848982   12.46670498833022
H         1.01309655723893    4.96096206697262   13.90119996015563
H         1.84275528591330    3.92349259639445   12.73637279819016
C         6.18604521880193    0.20551505105667   16.31345704679102
H         6.84537820791038   -0.60526518262345   16.00973914615284
H         5.59657284689254   -0.13546506416666   17.16113991940614
H         6.80165093342043    1.04068257441245   16.64248867953116
C         4.34856989737285    2.92244486385124   14.73288283059219
C         3.35698911381554    3.89922199078259   14.93989378017952
C         2.45084447922039    3.71819804986651   15.97646985090410
H         1.68561952355082    4.46044505513732   16.14881781658113
C         2.50253283185417    2.59997582513550   16.78619859405766
H         1.79886112637546    2.48630867944307   17.59746415125938
C         3.42824386964959    1.60781626912273   16.52435491095574
H         3.42827984521903    0.71169349979321   17.12636798304670
C         4.34718813314984    1.74296503775324   15.49574074346391
C         5.27968723549045    0.60475393400453   15.14686522342170
H         5.90667378592398    0.92571922493128   14.30180975872935
C         3.18317657058575    5.06986514499364   13.99518263198467
H         3.99439123872583    5.06912312570618   13.25036594219103
C         6.43508102213757    6.86435266037205   10.87729762699621
H         5.61336021466107    6.40548448934065   11.44145914884478
C         7.66013520864473    3.52940869286237    8.11147834071660
H         7.98983386188960    3.47697505544951    9.15204576136177
H         7.65807250574257    4.57719891837696    7.81048046303129
C         8.59230824097549    2.72018242210257    7.21289594693618
H         9.61874982382274    3.07723680087881    7.31616487236751
H         8.29312844435173    2.85248160664807    6.16963000313611
C         8.51504265139603    1.23961641576042    7.57619278766140
H         9.12123553617947    0.64621971974216    6.88898962456471
H         8.90313205059968    1.09424854493322    8.58634081287625
C         6.42012008178226   -2.00204975482924   11.41928558730536
H         7.38155772342599   -2.14031448893232   10.91993065019923
H         6.52593248855623   -2.31718181396633   12.45829089790641
C         5.35444877416112   -2.83685659551904   10.71587952765782
H         5.63494520405153   -3.89188794856004   10.71599272232304
H         4.40794201351034   -2.73586155304434   11.25075640337089
C         5.18144662383978   -2.33531795040958    9.28516990658765
H         4.37248754782913   -2.87188060936289    8.78757331294798
H         6.10271835757625   -2.50969438245621    8.72460242532227

