114
CSD_code = FILVIH | q = 0 | S = 0 | Stoichiometry = C41H66Cl2N4Ti | MND = 5
Ti        1.92323356148282    2.34478603815639   14.99521910801830
Cl        1.26282882121542    0.32456737074451   15.66770543979406
Cl        4.04447105371976    1.74814435581773   15.08007519530224
N         1.34130568389470    5.33210417254514   17.32099778650038
N         2.17051858440536    4.34069301317288   15.31051224997512
N         0.85054342756027    3.11313644297088   16.56655602935452
N         1.50969784862313    2.32825959441162   13.22066113899550
C         1.44804394854536    4.29566368340338   16.43022846688503
C         2.46130130032276    5.49565157671644   14.56363321728694
C         3.80207584990707    5.86481091468054   14.33645291609557
C         0.54981734702426    2.52533705748293   17.81451379863825
C         4.07745192649762    6.94322305791751   13.50854639977040
H         5.10356015248584    7.22493305060960   13.32732274434423
C         3.06402543743211    7.67504938485042   12.92256418596132
H         3.29551643001637    8.51597011176225   12.28625809009324
C         1.74994266676080    7.32796716464635   13.16560172408691
H         0.96144695909710    7.91335326076454   12.71676611116928
C         1.42207873737039    6.24384554313378   13.96885597475314
C        -0.04320763502634    5.91304060741775   14.17229778345377
H        -0.11335275268480    4.97950449349600   14.74655974199484
C        -0.75362977302528    7.01945512479384   14.95849051424177
H        -0.27290114238143    7.18553231486512   15.91585451121096
H        -1.79118716808088    6.74328997135030   15.13618203440554
H        -0.73860869248098    7.95375065226035   14.40153927524825
C        -0.77508619880250    5.71039366572616   12.84089206649516
H        -0.75672496937743    6.61854282513595   12.24347438443747
H        -1.81640913332034    5.45368457762888   13.02838702018737
H        -0.32185746386628    4.91014574090829   12.26298958250226
C         2.44169256215304    6.25501145846561   17.52557066921894
H         3.30215715019921    5.85590168485875   16.99279392765710
H         2.68361666642673    6.25941551988287   18.59493464337779
C         5.87079380768879    4.46392727434343   13.98817096568446
H         5.34793221946525    3.64907157888590   13.49675714945688
H         6.73512958136583    4.04382238694647   14.49731668124856
H         6.21951042502847    5.16898917687652   13.23634441145138
C         3.70733761057053    0.98178231090122   18.30439765048176
H         3.71855518145864    0.50312922060643   19.28116172399041
H         4.73165131482191    1.07922213014199   17.95018544129705
H         3.16426149711922    0.33814948600900   17.61293612116248
C         5.79400560655886    6.12387362923690   15.84511294831643
H         6.36702952398748    6.78683250368329   15.20115995234842
H         6.49407485777884    5.56872192202580   16.46568551762777
H         5.17376139498155    6.74022015246350   16.49172817231241
C         3.78208912747008    3.24678023655527   19.38791323065485
H         3.31373390058563    4.22479365087869   19.46637747719719
H         4.81431161126797    3.38292731268121   19.07184832228773
H         3.78676418097808    2.78998816958896   20.37493234350419
C         0.17775919124954    5.48277103705542   18.17575462475502
H        -0.57488377199957    4.77800337468280   17.82681901228948
H        -0.21859953821999    6.49550583713771   18.03046948794570
C         0.42029273919340    5.27400314037753   19.66949974497470
H         0.86359355311053    4.30162761030720   19.86061431604083
H        -0.53426815288440    5.32105303182958   20.18726707456667
H         1.06403606912704    6.04866252927735   20.07918941312326
C         2.18850526593894    7.69518856703709   17.08450320268941
H         2.00681973170726    7.75123192838821   16.01528279806067
H         3.06892704261032    8.29118957228078   17.31302823945352
H         1.34440637242597    8.12760211533573   17.61646744636764
C        -2.36251252780940    1.01316572756106   16.65617168032746
H        -1.51509298356864    0.42092507777527   16.31648540294696
H        -3.08280464715887    1.10555706966577   15.84640138672126
H        -2.83693943520908    0.48362696666097   17.47914315248045
C        -3.05960707760379    3.21160003393725   17.65777934155481
H        -3.55037565353210    2.69367451017760   18.47769470024972
H        -3.79409714453232    3.36848287904380   16.87015235384309
H        -2.73204929941314    4.18469071689634   18.01918229795637
C         2.58620830385661    2.75953199600733   12.34006194022560
H         3.32901693612418    3.23592073867296   12.99779694715458
C         3.28568113510792    1.59770911580805   11.61015510980777
H         3.53502583620219    0.81843200700942   12.33805713628119
H         2.60970599584086    1.17940285898698   10.86141431253489
C         4.54492461593966    2.09115870612651   10.90341083821117
H         5.25621735033900    2.46642315488119   11.64108082938010
H         5.01995390012538    1.25885317277111   10.37947394878530
C         4.20063064397242    3.19818930722069    9.91093314004970
H         3.56546526170476    2.78949513151016    9.12096510333420
H         5.11233948500682    3.57505973730872    9.44310298607227
C         3.46542458055944    4.33914703068483   10.60816559190699
H         3.19481265274841    5.10659223754446    9.87923466989386
H         4.11964560331068    4.80161340079678   11.34976725682155
C         2.20502186412590    3.82997317081337   11.30305229612292
H         1.71124450599565    4.66099841364028   11.80840315681527
H         1.52922387615445    3.41572998261894   10.55127328920147
C         0.30500442944380    1.79769586918845   12.60980289578329
H         0.14176977901792    2.28002355511757   11.63302053573003
C         0.33518338835814    0.26993301993902   12.38762692736594
H         0.48469736392790   -0.22203261971139   13.35106222636719
H         1.16560345771259   -0.00630089829472   11.73908296499905
C        -0.97243181584280   -0.20705244469161   11.75966445123324
H        -1.09924976057122    0.26073261984479   10.77890352274330
H        -0.92902199003460   -1.28749243381260   11.60952862071599
C        -2.16180752616595    0.14620826129326   12.64487787243122
H        -3.09060474690052   -0.18686395181900   12.17653486487909
H        -2.06086447881756   -0.36665182284167   13.60303728746411
C        -2.20148668557830    1.65152201575951   12.88091708337314
H        -3.04101625155358    1.90905495909165   13.53010548918401
H        -2.34897271672322    2.16708091007301   11.92772254470477
C        -0.89352889095303    2.11627185502643   13.51480558955634
H        -0.92966411876104    3.19188640002632   13.70215992877351
H        -0.74036269230866    1.59649470589498   14.46594486754024
C         3.04441358220095    2.36274184698446   18.37906314556079
H         3.14137078621114    2.83045639891512   17.38733547288212
C         1.57872150402067    2.19817225522039   18.71928508147121
C         1.24136108908849    1.62617954066153   19.93939152267906
H         2.02363432479434    1.37329800473588   20.63920153108829
C        -0.07238038180198    1.36583531388182   20.27447209050716
H        -0.31263882027277    0.93060967745109   21.23306022507608
C        -1.07165669153162    1.63388790612543   19.35987797674447
H        -2.09379245181632    1.38997135644771   19.60608335213292
C        -0.78113994597489    2.20179748234694   18.12943746823657
C        -1.88478426443053    2.39455517307997   17.11522653025968
H        -1.46369150345740    2.92417811765397   16.25145427785169
C         4.95655292164971    5.14843405269723   15.00680473783818
H         4.55202779916337    4.36778541330014   15.66388984545010

