97
CSD_code = FILWAZ | q = 0 | S = 0 | Stoichiometry = C50H43IrOP2 | MND = 5
Ir       11.65061235701076    5.09682748265475   13.18125413608668
P         9.54635266186377    6.25776967859198   13.18103609640225
P        10.79891470219508    2.85090435911433   13.28138181884817
O        12.32920955864706    4.61977723621589   16.10817079753695
C        13.31858720516268    6.26364151629287   12.99646125895206
C        13.97303953558554    6.71732127339492   11.85178886754549
C        13.52541511209648    6.43365812145016   10.56350847252767
C        12.40712864869692    5.65995182806167   10.24237300550729
C        11.59597022701785    5.05800997769538   11.16822849099048
C        12.01078257333825    4.89061191069464   15.03105102156934
C        13.86536704671819    6.73790703823959   14.28712512703595
C        13.29056214528115    7.82035219216056   14.95646004672275
C        13.77908943645933    8.23623252830876   16.18026405039985
C        14.85504391363847    7.58723982440053   16.76196848977458
C        15.43905160433244    6.51551294205724   16.10673911767601
C        14.95426275215883    6.09758415023248   14.88323404925659
C        15.19468812340282    7.61119206555320   11.94595254347823
C        14.78978748896359    9.08510665768842   11.92785462440143
C         9.59109784877692    7.97213386129252   12.52635400066992
C         8.42316163338512    8.72767900176910   12.46228488738097
C         8.46211503540922   10.02431319207955   11.98701806039003
C         9.66379858149568   10.58074119065528   11.57624710210837
C        10.82610212528722    9.83203158712250   11.63672140601028
C        10.79046653174294    8.53125409339663   12.10939651079486
C         8.72490405267451    6.64832502809516   14.77399884701852
C         9.57119712930802    6.95289293243742   15.83648385580959
C         9.05957720923206    7.29940183414772   17.07210550730990
C         7.68813267843165    7.34547558578479   17.26283280971104
C         6.83901501920143    7.06176306946269   16.20688682138957
C         7.34953810134714    6.72227526730743   14.96600937972034
C         8.20329470232940    5.58231249684165   12.15058543956806
C         8.18156057592199    5.89977780811673   10.79362626186232
C         7.24757962344036    5.32161853622687    9.95506466375587
C         6.32828149901152    4.41307324765051   10.45627841961695
C         6.36074527544086    4.07146921713099   11.79882161203327
C         7.30003686034491    4.64107309295538   12.64005321017435
C         9.26368649485480    2.45486057499678   14.19870864951974
C         9.00675664622488    3.20658403337330   15.34239250684876
C         7.85917909670050    2.99562199823965   16.08306301888287
C         6.94887873348264    2.02978994867207   15.68345237153490
C         7.20070627708905    1.27230233708788   14.55142526497612
C         8.35205279580061    1.47796675120386   13.81133945409483
C        10.56045636584636    1.93034067594675   11.72665448836766
C         9.46699109314484    2.26566048101970   10.93014121000371
C         9.28910116763578    1.66817608175806    9.69759548729496
C        10.20925133767334    0.73856465134872    9.23940366717731
C        11.30748384762443    0.41481382803020   10.01819495508722
C        11.49003798482787    1.01171025919050   11.25339192200573
C        11.98033115509193    1.75288570554418   14.14817258294586
C        11.58191897021343    0.64067946222021   14.88024750366162
C        12.53020840356457   -0.15529945563224   15.49861279682359
C        13.87723041195051    0.14605852891002   15.38683876838359
C        14.27986723788202    1.25016900372528   14.65267707025703
C        13.33566828978209    2.05090166565995   14.03889675192968
H        14.09528265734552    6.84734772324359    9.73920797725382
H        12.21097907118691    5.52508969897182    9.18010205309305
H        10.79945770316888    4.47286636023880   10.68645239117597
H        12.44362250929421    8.32760020167530   14.51212234138384
H        13.31598451424114    9.07395398208916   16.68355397325718
H        15.23377662951382    7.91138314335441   17.72029779255885
H        16.27768815726150    6.00092097993766   16.55448123536987
H        15.40641617291967    5.25431559162842   14.37886126424063
H        15.75007537354765    7.40687450199467   12.86150380283706
H        15.85514417229002    7.41122555401522   11.09841354019517
H        15.67092116847645    9.72319968052098   11.95976953958539
H        14.22974734316088    9.31223403653269   11.02243184620019
H        14.16672528215822    9.31470781745408   12.78927700075660
H         7.48321638378096    8.29937482777200   12.78032192632628
H         7.55247464692687   10.60537240102103   11.93769428555378
H         9.69014708330517   11.59607370750976   11.20852071112821
H        11.76432799156309   10.26025614743790   11.31606937879893
H        11.69042784903601    7.93357908911660   12.14976049242997
H        10.64215580884294    6.91153721341044   15.68398389586160
H         9.73059062993361    7.52887923813813   17.88673633667151
H         7.28220344642140    7.60578361072265   18.22931460614362
H         5.76841416774868    7.10725151019443   16.34732595906734
H         6.66685960365439    6.51372892467889   14.15513648370699
H         8.90582565855657    6.60127332687813   10.40243366325491
H         7.23687937266726    5.57775784847376    8.90554613677050
H         5.59552914292533    3.96492552190894    9.80140529994743
H         5.65959490384520    3.35024869541287   12.19388180642587
H         7.33453770326289    4.34950728868989   13.67956664568586
H         9.70857666655104    3.97240550652330   15.64365007329103
H         7.67081513491850    3.59233202070290   16.96386929068711
H         6.04559595442002    1.86799899110753   16.25313020878226
H         6.49585803930441    0.51389575940281   14.24168790258729
H         8.54009243404146    0.87769840273794   12.93245765881285
H         8.75249578189821    2.99230110479390   11.28954875815944
H         8.43482981358699    1.93452111884570    9.09179098500921
H        10.07327948247018    0.27212670677002    8.27472673713641
H        12.02993932760045   -0.30443840901985    9.66034427257154
H        12.35525864461787    0.76076137431186   11.85047820462112
H        10.53258073407546    0.39864262953934   14.97379986268600
H        12.21458824879209   -1.01480447825944   16.07230283719614
H        14.61232889210564   -0.47708786137003   15.87464020373359
H        15.32959970783678    1.48908976813622   14.56418800545971
H        13.63538010109200    2.92619037737400   13.47058333229315

