21
CSD_code = FILZUV | q = 1 | S = 0 | Stoichiometry = C7H4N4O5Re(1+) | MND = 6
Re        7.21321949666759    8.32089223620492    2.17733520678070
C         9.13429361314840    8.78756115726445    1.88961021044731
O        10.20471037268340    9.09273012148313    1.70975598945346
C         7.66577375512531    6.51738555562693    2.86839290692335
O         7.92556438166819    5.48897208329400    3.26060368176944
C         7.09772877862582    7.67161745921290    0.29018318857845
O         7.02255357504228    7.35247856100871   -0.78808413409211
C         5.25676835794442    7.99974898566433    2.40026183887546
O         4.14304754403539    7.85574334328844    2.51053063669716
C         7.29296834576854    9.12148923498987    4.00083981193640
O         7.32749969397427    9.61430385158112    5.01610007717938
N         6.73149924891203   10.26177256186451    1.42560357647626
C         6.53023011868388   11.28401149222348    0.90377635991624
N         6.40050559944652   12.29621924374753    0.17614160304367
C         5.90776937215055   13.50097045235995    0.33940561456735
N         5.95828179310753   14.32170335204354   -0.70853718843622
N         5.36872082974506   13.93158918270097    1.48798477380986
H         6.36466394725314   13.99240986642851   -1.56833990794702
H         5.60289488809928   15.26124066691851   -0.66835775959515
H         4.99934772797427   14.86338505578425    1.57694845495759
H         5.31895855993612   13.32857553632450    2.29124505867332

