66
CSD_code = FIMFEN | q = 0 | S = 0 | Stoichiometry = C32H29ClP2PtS | MND = 4
C        -0.31627864105296   11.76922211478351    9.37881608556476
H        -0.98352667988206   11.61032566181016   10.21304295879905
Pt        1.53907016910584   12.56314720234591    3.70116152416142
P         2.47237361237809   12.58946837006846    5.80508141945414
S         0.97818615865045   12.59875947681175    1.43627444794828
P        -0.59466227695255   11.96356331107307    4.03517533996109
Cl        3.74225199526374   13.06432678779880    3.27441268441443
C        -1.75486043937396   13.31767833856300    4.36255320102660
C        -0.92250735798769   10.65239957074847    5.24497921003713
C         1.41510158573741   12.18092308541428    7.24433424532738
C        -0.82026508014666   12.25409917574412    1.37087255867600
H        -1.35934932493986   13.19919679949438    1.47845062716901
H        -1.00818173640723   11.85314546975387    0.37366290996390
C         3.88128295898632   11.46191223830536    5.96868878740568
C        -0.15593587995756    9.49916362865701    5.08758803623190
H         0.52598202501676    9.43576478113747    4.24664040525870
C        -1.23565131303469   11.27164294193336    2.45317861557259
H        -0.75275118164452   10.30337051424480    2.28765969303858
H        -2.32154017390459   11.12934574412006    2.49080398668121
C        -1.87499029283495    9.72454838433863    7.24010484278233
H        -2.54137147254010    9.81437849152942    8.08522064238031
C         2.90118078994106   15.32584535507720    5.53347779858149
H         2.48773994411835   15.19237459537453    4.53986401034946
C        -3.12940756961506   13.13375003630582    4.47290687507909
H        -3.55180170647020   12.14098568248420    4.39478635292559
C         1.61550521361272   11.11415628460061    8.10944783382989
H         2.45320697833436   10.44728484134686    7.96431810082832
C         0.33228708110398   13.03233272381269    7.45196271906329
H         0.17685287087347   13.85849838085531    6.76874449643709
C         3.04977497366866   14.21903082325877    6.35862734930022
C         3.30678572326360   16.57421140716460    5.97069391169378
H         3.19796114462678   17.43314310732817    5.32514097432002
C        -0.25599803642676    8.46388464459433    5.99520339842935
H         0.33990662733492    7.57166236584485    5.86954287600721
C         3.62780576286274   10.11107332467178    5.74011712805281
H         2.61376040433502    9.79561506318237    5.52534459534515
C        -0.52348011399892   12.83481649177816    8.51644240610780
H        -1.35283700228263   13.50894332786034    8.67557826107232
C         5.95484551007553    9.62276600662547    6.02568849016064
H         6.76502759235100    8.90870211971062    6.04483511427062
C        -1.21985523877176   14.59919665672002    4.43500096623674
H        -0.14507543310046   14.71917123836598    4.31413025339323
C         4.66064919271485    9.19429306170168    5.77489695224314
H         4.46182600722796    8.14751254162388    5.59522634633134
C         3.58497970051149   14.37060543226302    7.63518138461881
H         3.67889972178783   13.50865469581765    8.28292455177421
C        -1.77543446105073   10.76620863971875    6.33390636102444
H        -2.35230434551014   11.66736841320635    6.47964801045983
C        -1.12012434807070    8.57657451188471    7.07369998994016
H        -1.19875377565237    7.77066438347088    7.78801971409770
C        -3.41262404499015   15.50073458034844    4.76322273457964
H        -4.06214523453937   16.34896171834367    4.92097134964730
C        -2.04584031413496   15.68963773417080    4.63547175972933
H        -1.62831073044094   16.68411089234160    4.68777416617630
C         0.74789973075891   10.91012362356908    9.16915306260055
H         0.91017170321973   10.07822391867492    9.83908410836596
C        -3.95228585707808   14.22640219905688    4.67830971520146
H        -5.01975748012413   14.08581410104125    4.76719643387860
C         5.18133099270863   11.89072279000502    6.20105112521196
H         5.38800864603976   12.94253391466488    6.33437014035018
C         3.85674878839362   16.72008191428629    7.23336682251053
H         4.17958874325919   17.69332010008426    7.57302209332760
C         6.21209044244577   10.96768669245691    6.23246968235047
H         7.22397355891344   11.30251066011092    6.40811860226034
C         3.99308318003248   15.61905043934929    8.06524893576794
H         4.41826801326149   15.73597647617098    9.05160982421921

