26
CSD_code = FIMFIR | q = -1 | S = 0 | Stoichiometry = C9H12NPdS3(1-) | MND = 4
Pd        4.29644250376950    8.97752736844039    4.05459707678821
S         5.77860488232611    7.89950745350946    2.55119236919365
S         5.88594434184442   10.26624095210508    5.12959227310352
S         2.45572574305831    9.69881893571931    5.34321158987525
N         2.89079193219648    7.87425254716247    3.06268675863290
C         4.47930572895125    7.82247916013164    1.25666159011985
H         4.42731677982677    8.82097846874126    0.80470316034833
H         4.79225282795118    7.10541899513610    0.49196044967922
C         3.14088295374889    7.46857457979029    1.81523633723693
C         1.70435586524295    7.64472323595931    3.63249019507489
C         0.94345060890191    6.53680880204530    1.65289884226735
H         0.17754027372623    6.01124117418432    1.09842598392541
C         2.18290111345676    6.77808208193011    1.08267225014908
H         2.40788936264065    6.44879499453440    0.07879059612730
C         1.54429295754872    8.12355779865515    5.03528655226085
H         1.95791968034813    7.37719664856976    5.72406425634672
H         0.49192865851439    8.28380003345571    5.28273622163047
C         0.69756216634680    6.98111309854979    2.94262857601309
H        -0.25835612393186    6.81354368730171    3.41657252437785
C         6.71640616459488    8.80930719128925    5.85168242240262
H         7.28155543846352    8.30852973056565    5.05900637994258
H         7.40720599292442    9.18450688348819    6.61226371098670
C         5.69100719513308    7.86176410331671    6.46853017651880
H         5.04503720607386    8.41913965722848    7.15131153024500
H         6.18217461348019    7.05226746155325    7.01395620203591
H         5.06666113287256    7.42402495662972    5.65674197471239

