49
CSD_code = FIMGAM | q = 1 | S = 0 | Stoichiometry = C23H22N3Pd(1+) | MND = 5
Pd        4.79331780213177    1.79413417706663    4.41481939868349
N         6.77467567898169    1.59260297944700    5.31714668235999
N         6.69236141880366    0.68183027692450    2.54800480397968
N         5.05334296040904   -0.74197823918774    2.52525700022631
C         5.46137497814753    0.42427467402503    3.03936723947209
C         7.02069050187760    1.38279001347272    6.60635351654761
H         6.16128401910844    1.34106496377635    7.26605948434779
C         8.30545746608947    1.24043501429351    7.10621818785209
H         8.45727450683122    1.07733034054831    8.16046710442665
C         9.37444421963470    1.31603482826089    6.22931416884336
H        10.38869968260639    1.21278442007127    6.58133321048297
C         9.11517153429183    1.51953070039936    4.88180968622641
H         9.92250975214524    1.57678763054849    4.16906424356900
C         7.80178705758359    1.65471504221432    4.46047817278251
C         7.44786402001826    1.83274166083714    2.99589300656441
H         6.81586784402271    2.73457809717550    2.88321137035663
H         8.34520968445578    1.94153902643376    2.38691064342779
C         7.09482234387076   -0.33826733823507    1.71099611607628
C         8.24508767190808   -0.55959748386327    0.96831090509253
H         9.07057464357724    0.13405546388994    0.97561324791496
C         8.29082980571465   -1.71269917217056    0.20906216946662
H         9.16823552142674   -1.91856970057485   -0.38305126660931
C         7.23024378654081   -2.61873590442445    0.18541962022387
H         7.31148889057155   -3.50349474836284   -0.42545570720386
C         6.08101198632179   -2.40851449050281    0.92193608508557
H         5.26248671922123   -3.10929620727975    0.89920116590023
C         6.02614904579307   -1.25367353658214    1.68841236012702
C         3.78628842514862   -1.35795196339609    2.81552226183264
H         3.93535874730519   -2.36126677791835    3.21674586281791
H         3.17723824423831   -1.42423088185805    1.91226389656449
H         3.27179168497270   -0.74139763155922    3.56146414102095
C         3.09800649037393    2.59822394735781    3.49593109965640
H         3.57302608953701    3.37533748760812    2.88352479423632
H         2.31276462704510    2.04555515930831    2.98914989383545
C         2.98919022932052    2.79915133101080    4.88614910127092
H         2.22315566042909    2.26425686470306    5.44667693097957
C         4.04832147037746    3.42164988878979    5.57209932539160
H         4.53439798397298    4.29805213147790    5.12586425562428
C         4.14108080794090    3.27208320274518    7.02681351286480
C         3.90026788713714    2.01032449986494    7.58792086398772
H         3.67710940673054    1.16277423689379    6.92991991098620
C         3.97370434127099    1.82614051303775    8.95588930054120
H         3.78435817717463    0.85167437877720    9.38102815818814
C         4.29408214535807    2.89322616864483    9.78183358861077
H         4.34410639872745    2.75100838917461   10.85004065414754
C         4.55657073609567    4.13884989886827    9.23422618161088
H         4.81296548877484    4.96660626285722    9.87735103634268
C         4.48813189479231    4.32897799547785    7.86622586820271
H         4.68701952119291    5.30285240989167    7.44310674502953

