69
CSD_code = FIMGOX | q = 0 | S = 0 | Stoichiometry = C27H32N2O2PReS4 | MND = 6
Re        1.05010386743186    2.13904820661602    3.16953196134561
P         1.66824975908354    1.91393537972491    5.46111450353919
S         3.21241511893147    1.34446838048552    2.31086815751478
S         0.25333321314419    1.97857480508054    0.82052631468049
S        -1.44785451814741    2.86548569863095    3.69753584455847
S         0.16766549951686   -0.07047464301208    3.41629805261757
N         1.55462074102380    3.81789683108186    2.97079032514148
N         1.91758576571982    4.98012210444152    2.88532126007516
O         2.14655151180893    5.29810595548833    0.63035145626349
O         2.79161140958002    6.86994947981868    2.12743202267858
C         2.74473552598706    0.92947749455518    0.59354587284661
C         1.87269445945086    2.00029302112880   -0.02637623942299
C        -0.47288763564593    3.55983577329754    0.23530619068779
C        -1.26091774334403    4.29101243404696    1.31513653679422
C        -2.20757145428435    3.38813840726434    2.10246858647620
C        -2.22134647065932    1.23357661517169    3.92945043114408
C        -1.59643782159997    0.15749928337739    3.06231317869394
C         2.29013820749387    5.67432361571254    1.77870710825100
C         3.20843520103985    7.68900669186455    1.04901318655460
C         2.59037290993985    0.45399939417002    6.02739349076384
C         2.91934875749128    0.37212144795928    7.37940189341266
C         3.61651284387899   -0.72199427378484    7.85311568979938
C         3.99258202165099   -1.73523756119823    6.98387880647266
C         3.67390710213074   -1.64940144053503    5.63970103742024
C         2.97496919080139   -0.55607506270505    5.15762010777715
C         2.72063741080216    3.25794838225111    6.08935451989757
C         3.76601048743470    3.64782123120323    5.25632006673059
C         4.64155561983842    4.63579988148311    5.66408274311337
C         4.48052574536678    5.23652953401271    6.90290184473874
C         3.44587137708340    4.84431847139090    7.73529849502132
C         2.56544862804403    3.85441255166164    7.33454688977032
C         0.20021435924603    1.93353040433202    6.52714674407700
C        -0.49598076287708    3.13519022266184    6.65069901772657
C        -1.67561192752311    3.18065750780046    7.36942655109155
C        -2.17667634926799    2.02616790593887    7.95232113644227
C        -1.49940514295357    0.82555857121838    7.81069449615268
C        -0.31426664571300    0.77388817787559    7.09631587642251
H         2.23331433806406   -0.03651894218500    0.60012953642518
H         3.68402331107181    0.83809573188948    0.04811588562935
H         2.30407730724817    2.99315637952603    0.11210156791381
H         1.68440555576410    1.80125660453432   -1.08318909897020
H        -1.11863784006563    3.29511748631135   -0.60416015679264
H         0.35279183624067    4.18207275647921   -0.10646631720499
H        -1.83149710386626    5.08769591835335    0.83137057309832
H        -0.56674449677281    4.76401385085144    2.01429298571543
H        -3.11850362932870    3.91884905930014    2.37939555234484
H        -2.46947748763991    2.49461593887526    1.53682009247054
H        -3.28768572055961    1.35301890040481    3.72898589517644
H        -2.07296918758822    1.00463985758091    4.98594159439282
H        -2.08196645065102   -0.79946298633788    3.26914853546689
H        -1.71798953836286    0.38619542974744    1.99789803807863
H         3.49770566355307    8.64080659758558    1.48705592044488
H         2.39473041173945    7.82770375592931    0.33298336841756
H         4.05654159050284    7.23583668647833    0.53055885489380
H         2.62580113835880    1.16540735623384    8.05353643629911
H         3.86869043014171   -0.78655823861252    8.90192878598296
H         4.53638634120337   -2.59031555860929    7.35862288055494
H         3.96974760112365   -2.43589696577236    4.96163323697615
H         2.72796942685156   -0.47938339305013    4.10968899615842
H         3.86862697287035    3.16643709078914    4.29133319176663
H         5.44837202584244    4.94186366125105    5.01555351597294
H         5.16113179725356    6.01269752874361    7.22106194907501
H         3.32168514061132    5.31175276432147    8.70166364128118
H         1.75536184519985    3.55805376056536    7.98686069164566
H        -0.09940508198229    4.02077846156369    6.17066287644770
H        -2.21042772091153    4.11358978198009    7.47030476288844
H        -3.10063502244995    2.06073163195186    8.51100404285158
H        -1.89853825012532   -0.07577481204873    8.25331443351419
H         0.20947453478474   -0.16318697510400    6.96869357383096

