20
CSD_code = FIMSOL | q = 0 | S = 0 | Stoichiometry = C6H11AuN2 | MND = 2
Au        7.36223898937635    2.75567532035536    6.30919666478037
N         9.68072292082504    0.75259070302590    6.47477845573330
N         5.69562653204195    4.19294058756800    6.18881363693066
H         5.77795929499063    4.56110017591699    5.24274764775275
C         8.81199975731298    1.50315352954756    6.40996723882133
C         5.82184662209951    5.31212801156430    7.12939117234143
H         5.02982121654569    6.05292304517494    6.94794570113531
H         6.78891142858883    5.79442773831987    6.97003245575974
C         5.71559508511388    4.80115947337262    8.56120512794196
H         5.81424982053818    5.63902482709358    9.25251564899354
H         6.53380334705721    4.10282636217764    8.75123377122417
C         4.38018978892950    4.09188090111523    8.76760304489055
H         3.56387568093778    4.81195202192467    8.66779778656570
H         4.33242953345958    3.66893136592982    9.77139492446973
C         4.21839735292960    2.98836633549701    7.72608249508456
H         4.98110615792192    2.22247244550011    7.88366010506119
H         3.23849389853382    2.51809942524355    7.81590621291947
C         4.37670546198058    3.56432354605579    6.32412634115212
H         3.58256530379499    4.30298529011644    6.14246775740673
H         4.28946180702220    2.77203889450094    5.57693381103544

