86
CSD_code = FIMTUR | q = 0 | S = 0 | Stoichiometry = C37H41FeN5O2 | MND = 5
C         5.51694452284903   -0.31891087639734   10.44940143387902
C         4.30929145430034    1.48904400282356   11.31108478270473
C         3.01030625285313    0.44946102712055   12.82708805312843
H         2.26806549682926    0.37640649631902   13.59664866331280
C         3.75780199531753   -0.51320672028958   12.24383104777155
H         3.78448876363653   -1.57026267028713   12.40835358672952
C         2.80022938723035    2.89245732330402   12.68812020274628
C         1.57227486202407    3.30484658542645   12.16940180016198
C         1.01082687499756    4.47475301766709   12.66410994400030
H         0.05617085285903    4.81019674679404   12.28995463534312
C         1.65967662086842    5.21475523708284   13.63217694677740
H         1.20807615153689    6.12021428906669   14.01047362556219
C         2.88833696390760    4.80576621980022   14.11526018011916
H         3.38521989804378    5.40061276151256   14.86456121905250
C         3.48418659065172    3.64280028162665   13.64952410824188
C         4.81617371396060    3.17417749861724   14.18875849536447
H         5.29791178414519    2.56198266034767   13.41830810757463
C         5.76021303349327    4.33388807686915   14.50347467658317
H         5.78052992052879    5.03391412836846   13.67321806132357
H         6.76762823637456    3.95512075159297   14.66167453541162
H         5.45600846932915    4.86287850207741   15.40353017016455
C         4.59530732687766    2.31515454003199   15.43832988612768
H         4.07835132864217    2.89055513225555   16.20399260074580
H         5.55080239690707    1.98429815676339   15.83969705679372
H         3.99749260162174    1.43629020721972   15.20708623477379
C         0.85524785509968    2.49543797125246   11.11491741745542
H         1.54837359409590    1.74837647461869   10.71573987477076
C        -0.34264175420818    1.76898267502568   11.73347887782456
H        -0.02131363587254    1.10257097707086   12.53137166561502
H        -0.85502042953772    1.17820614858434   10.97744482178166
H        -1.04814276231874    2.48462643320749   12.14991847851663
C         0.40786843005321    3.37370832912137    9.94621616707890
H        -0.39007896637057    4.05099361866669   10.23970205784451
H         0.04222966307311    2.74932403288533    9.13427927110122
H         1.24569870865311    3.95982247255787    9.57774548717126
C         5.97479117516968   -1.60488938857420   10.25088305685595
H         5.55575743211294   -2.42787608911107   10.80748836025949
C         6.99298644974442   -1.81529424213905    9.32507615893726
H         7.36868312693802   -2.81046130885881    9.15222232781482
C         7.53359401680182   -0.73534154359900    8.63258217080573
H         8.33339604297615   -0.87833903624642    7.92365802907076
C         7.03160954902721    0.52576271766083    8.87822405346308
C         6.74427772875596    2.84475048992557    8.79666471623239
C         8.34374133391183    3.42131184726978    7.32188553680541
H         8.93100935979139    4.08873103722874    6.72343903833566
C         8.40190804845283    2.07640331245857    7.43864261551527
H         9.04124238787537    1.36254228207935    6.96239314942904
C         7.06416530484342    5.25764938005095    8.33391489813570
C         6.21335879757316    5.90889005525185    7.44031926895369
C         6.02472231309544    7.27631338660594    7.59249288590328
H         5.38238116624566    7.80748708594918    6.90759499357462
C         6.65131654206193    7.96649526517386    8.61082891776342
H         6.49824340148043    9.03088450752744    8.71353580040320
C         7.46810572401592    7.30014987743881    9.50463031125139
H         7.94164057220651    7.85256478146019   10.30024031121080
C         7.68494002338986    5.93492784798578    9.38789113292444
C         8.59378763879766    5.20253847814143   10.34809675969960
H         8.29712698946339    4.14810985026378   10.36132243685326
C        10.04489324667537    5.30264017508174    9.86651763577303
H        10.16037318195764    4.85492694933463    8.88182320708691
H        10.70643121471301    4.78566701816674   10.55837573440050
H        10.35122156490373    6.34529831169219    9.80773649564639
C         8.47118187482863    5.72517895865061   11.77891117980016
H         8.94338986648893    6.69824298043623   11.89038235333381
H         8.95803701279774    5.03566963292051   12.46517855290513
H         7.42446006047681    5.80773628673939   12.05660214029191
C         5.52948052305585    5.15808404439928    6.32257426090536
H         5.62884096057095    4.08454796534012    6.51119398381415
C         6.19834934236206    5.48297561485957    4.98383386659170
H         6.12924376258837    6.54782961403893    4.77242138159926
H         5.71096225622492    4.93809857069038    4.17843138311390
H         7.25038178477765    5.20545474184017    4.99967021021086
C         4.03507692239613    5.47652876978786    6.27041375096724
H         3.59116717446532    5.34375883869780    7.25368250634014
H         3.53819275407181    4.80341136564421    5.57566416456223
H         3.85667242224405    6.49701280167551    5.94112677546808
C         3.92868310064629    2.66818704521499    8.77498561213540
C         5.18375060655124    4.04634943414997   10.72964209157594
Fe        5.23947850033378    2.47723251642642    9.94225941023537
N         6.01495761141811    0.75505174271758    9.76423149954060
N         4.55320021216545    0.12290173133897   11.31926678989672
N         3.35042013830178    1.65356208355259   12.26477256673402
N         7.42645108567086    1.72484160401645    8.34257042528059
N         7.34668749635759    3.87869457398223    8.14542828219043
O         3.07014182296146    2.80253735169635    8.01238828399424
O         5.09165217276874    5.10172617432683   11.20211435187960

