19
CSD_code = FIMTIG | q = 0 | S = 0 | Stoichiometry = C5H11AuN2 | MND = 2
Au        5.74101035488749    1.14995577688712    1.63716265270337
N         7.92609649404213    3.30208805900018    1.64457912290089
N         4.18670503665291   -0.39222981540056    1.62565638853171
H         4.56156905692526   -1.18148053940760    1.10582270797938
H         4.06067978569855   -0.70256379191865    2.58598806574024
C         2.88252923854008   -0.01150542730136    1.06588196100049
H         2.17942706658827   -0.85382293246543    1.10980483078604
H         3.03789668114868    0.24746748204868    0.01569792673889
C         2.27281610803356    1.18934801427063    1.79402949505226
H         3.01124854088282    1.99896178854844    1.78500599625413
C         1.02317946839467    1.65244296680795    1.04981450987716
H         0.59637061766929    2.52458759503035    1.53727145977535
H         0.27240206277574    0.86481530957205    1.03746645446134
H         1.26127381036403    1.91830375989644    0.02275581461665
C         1.93343568902103    0.85184793217122    3.24426532728479
H         1.44105015830031    1.69805542850486    3.71595405750718
H         2.82728851955686    0.62958182055752    3.82354699524906
H         1.26021711392163   -0.00264738791942    3.29215999369317
C         7.10600419659604    2.49609396111913    1.64113623984864

