23
CSD_code = FIMTOM | q = 0 | S = 0 | Stoichiometry = C7H13AuN2 | MND = 2
Au        3.73537532655588    4.91786815248298    7.48856715384106
N         6.68940105653043    5.19960447033603    8.26795575560941
N         1.62691870207563    4.71394869492621    6.92416377450232
H         1.26915213431134    3.90738563230991    7.43089319883696
H         1.14874198032426    5.53502613073352    7.28827106850570
C         5.58139661564609    5.09389460254670    7.97922400863334
C         1.32693359547327    4.56644134050567    5.48847015027141
H         0.23944563259808    4.46442750274777    5.34545301662328
C         2.01106283042174    3.31516546780052    4.94395747357464
H         1.65097610524815    2.43222728599784    5.47849272733090
H         3.08641736489878    3.39844381935820    5.11878374727047
C         1.74367273290519    3.16613553600719    3.44913341208448
H         2.25482842420474    2.27810225984688    3.07477921969237
H         0.67207396271641    3.03096911454304    3.28193720013601
C         2.22385975585537    4.40275522529999    2.69631317698922
H         3.30456631134152    4.50240366996288    2.81551184985175
H         2.01166327037253    4.29451273919589    1.63152913852100
C         1.53777327123949    5.65296794106391    3.23739423158040
H         0.46086026570081    5.58099932380260    3.06520850351420
H         1.90173397843652    6.53690954288622    2.71183043333028
C         1.80549745514950    5.80295120691523    4.73207232496409
H         2.87751107694933    5.92680112661571    4.90333361611520
H         1.29863815104441    6.69245921411503    5.11542481822288

