20
CSD_code = FIMVOO | q = 0 | S = 0 | Stoichiometry = C8H9AuN2 | MND = 2
Au        4.11367740876903    4.59289184389935    1.42698729983123
N         4.11369378258428    1.53191151474924    1.42699489030814
N         4.11366804506061    6.69750544621698    1.42698475036827
C         4.11368756522541    2.68230870711985    1.42699134526329
C         4.84739582672255    7.37384463089682    2.30348261329134
H         5.42789211217015    6.78332708501597    2.99700740682424
C         4.88697351552639    8.76081769197690    2.35017926359171
C         4.11366681018566    9.45473497974036    1.42697568170114
H         4.11366631220398   10.53563722696705    1.42697152337628
C         5.74272472550874    9.47718381131275    3.34337365478978
H         6.64127763235139    9.85366392966768    2.85450127078691
H         6.04501110246451    8.81259853579371    4.14814116975057
H         5.21112728532214   10.32790995010366    3.76417753391144
C         3.37993912784931    7.37383807973330    0.55048275562584
H         2.79944269592985    6.78331548971287   -0.14303774018777
C         3.34036023979176    8.76081071063281    0.50377701422647
C         2.48460944975484    9.47717059088879   -0.48942227385079
H         1.58606395932747    9.85366827087730   -0.00054909939579
H         2.18230949515848    8.81257649200119   -1.29417715694128
H         3.01621290809345   10.32788501269340   -0.91024190327102

