47
CSD_code = FIMWAA | q = 0 | S = 0 | Stoichiometry = C14H23ClN6S2Zn | MND = 5
Zn        1.15374570481999    1.20920558033143    1.50769469505798
Cl        3.39052957267479    1.46119368225482    1.07018743553032
S         0.30409374624298    2.17890120933479   -0.76649381871004
C         1.55084170175616    1.33752874093088   -1.51155784304765
N         1.81451091014405    0.04051782601551   -1.17798062725171
N         1.33565595079773   -0.39905167089089   -0.00299270124951
C         1.66733440182168   -1.52006962824385    0.53731884527406
C         1.18635583043595   -1.69875701603988    1.88573799276397
N         0.82106435950904   -0.60484753722831    2.48642928288174
N         0.31376772785322   -0.61787660859429    3.70334520613322
C        -0.02545177972087    0.55428913330038    4.22551171928128
S         0.13436504156900    2.11272108792549    3.51129785855375
N         2.24315582466032    1.88619225116851   -2.50430231220679
C         1.97127294509446    3.23579143302905   -2.96592596433212
C         2.89918568041154    3.39823311523550   -4.16294480287202
C         4.11202124569593    2.56757330372536   -3.75177327939676
C         3.48385700286301    1.36292573302205   -3.05006576106427
C         2.53686773179588   -2.53763003266881   -0.13846080675495
C         1.15193224363746   -3.03898907199476    2.55360051568345
N        -0.56003292018227    0.50384786080050    5.44624405942062
C        -0.72236136193855   -0.73115638809884    6.18627232337659
C        -1.02983991061096   -0.26139727145293    7.60494790616249
C        -1.77893378834495    1.04888434531257    7.36877049994522
C        -1.03823943359550    1.65453843516990    6.17951219022143
H         2.66440806037241   -0.38397603079254   -1.54433368685917
H         2.20493591605359    3.95011193117467   -2.16905203359308
H         0.91304445102830    3.33635733139016   -3.21172593585276
H         3.14792266526456    4.43909557801472   -4.35249065422753
H         2.43750101845895    2.97820212050575   -5.05738614388213
H         4.72256211143188    3.12709938727419   -3.04357081314556
H         4.73235395256611    2.27342156474561   -4.59534887976025
H         4.12816827799853    0.98530235870574   -2.25085458119647
H         3.27195344326748    0.55670704122381   -3.76376356721915
H         2.55025658021606   -3.47108269225346    0.41202729581011
H         3.55858264444804   -2.15632917636409   -0.18974139116378
H         2.18568029684743   -2.72833246470956   -1.15275462907788
H         0.54212976693253   -2.95636119659914    3.44970121017575
H         2.15537928084853   -3.34809253626332    2.84580310867452
H         0.72893482217689   -3.79351563793620    1.89374899684654
H         0.18414285438634   -1.33347315040016    6.11086046943811
H        -1.55283023241826   -1.30882994270677    5.76481152093744
H        -0.10201977566198   -0.06865759269538    8.14412862706529
H        -1.61493561863701   -0.98840039786643    8.16372369615354
H        -1.76898550379002    1.70396053797702    8.23669981348989
H        -2.81484034065383    0.84233404773300    7.09819686745924
H        -0.18837239523587    2.26896270255158    6.49849331296046
H        -1.67467070328922    2.27272770494506    5.54245478356869

