48
CSD_code = FIMWIH | q = 0 | S = 0 | Stoichiometry = C18H23Cl3NO2Ta | MND = 7
Ta        1.93036763338951    2.55323819806998    1.65226064729328
Cl        3.46894137353491    0.84847209213124    1.20802446425821
Cl        3.26544249356942    4.38229260771572    1.37386919472720
Cl        0.63059947123484    1.29676798583982    3.10381704658773
O         3.37027151667506    2.60464170168755    3.89420461645392
O         1.02045442762088    4.28186415440689    3.53989194165580
N         1.21955048329019    2.25466600501099   -0.09853819401426
C         1.43307120384571    1.82586863635825   -1.45934061643493
C         2.17582903125751    2.91754314431933   -2.19194918680770
C         1.53156296351282    3.74288981512814   -3.10209619722015
C         2.21519796107270    4.78748248641619   -3.70180466009047
C         3.54307517082860    5.01863021478638   -3.38841967025185
C         4.18875638585827    4.20210620721202   -2.47380082622799
C         3.50815364444575    3.15799245514682   -1.87528202521226
C         0.35079573138598    3.28880794075981    0.27560469367436
C        -1.07846499157495    2.96839017707824    0.38515141053861
C        -1.51894813221081    1.64900005804631    0.52620838769865
C        -2.86249233692067    1.36648193689193    0.67119644980975
C        -3.79810872402295    2.38949117873993    0.67918085518270
C        -3.37742901151051    3.70057260653476    0.52943022392825
C        -2.03415071615018    3.98736993575642    0.37984459839065
C         3.49232877485310    1.42265127523448    4.66898265279904
C         3.07176739136135    3.77096669720788    4.63998617947962
C         1.56709484070294    3.98008232671550    4.81257566051181
C        -0.38097235269406    4.47365598942757    3.58221954541058
H         2.03841319258049    0.91424207450968   -1.41807972497013
H         0.47479847797493    1.60861119615449   -1.94628763162565
H         0.49217778575778    3.56769576071377   -3.34169942702745
H         1.70735503843372    5.42508360128767   -4.41089487547162
H         4.07406595100518    5.83613784523292   -3.85371025674573
H         5.22354781418988    4.38312174804862   -2.22381447513102
H         4.00411629199424    2.52140096973412   -1.15531709842862
H         0.53523731432800    4.23317700556348   -0.25684099700778
H        -0.79136048616139    0.84804329913264    0.52308809178486
H        -3.18548988690586    0.34111501162733    0.77862385537292
H        -4.84810046091501    2.16540998336086    0.79472803422219
H        -4.10120729816212    4.50306094634146    0.52415617502946
H        -1.71177151517161    5.01163891578663    0.24753223205508
H         2.55368156302149    1.16285377359767    5.16650033150822
H         3.75749476955530    0.62973230420461    3.97051538158313
H         4.28758435782554    1.53866400606122    5.41190435719867
H         3.56550171834574    3.73312680905599    5.61699068264814
H         3.46986948688817    4.60504710817670    4.05414895863043
H         1.38694147764646    4.81857147101995    5.49966969826766
H         1.09135919538320    3.07500603260289    5.21570328983562
H        -0.63451707851095    5.27492048017530    4.28370801695465
H        -0.68761392263278    4.74788426527998    2.57584989557153
H        -0.89217801983407    3.55092956570886    3.87520829361775

