65
CSD_code = FINGEQ | q = 0 | S = 0 | Stoichiometry = C16H36B9ClNPRu | MND = 9
Ru        3.55600993177323    5.03531367366225   11.49371927020604
B        -0.18404506231197    6.04988132328173    7.99350546049992
H        -0.82718817879319    5.45817009929954    7.20283335151659
B         1.17049554465471    7.05630393177343    7.50806498402491
H         1.61731869532055    7.17233890771347    6.42452930542869
B         1.44249939527929    5.56970664733858    8.39787981344236
H         2.07431620669944    4.68462683766061    7.94208712551356
B         0.11315621185699    5.38457043298654    9.60588421955864
H        -0.21623009894007    4.30987394709523    9.97636266160322
B        -0.91886626976072    6.79394348836809    9.43475643801320
H        -2.07789618962174    6.74230847033671    9.64983078949193
B        -0.24883680297025    7.85636686325021    8.17424178775117
H        -0.95024124642279    8.48798132797138    7.46599545731264
C         2.29607580441955    7.06300205456277    8.80721385328690
H         3.35903014224757    7.05855154012193    8.57147582383933
P         1.83039197376196    6.11988550096143   10.31696719438243
B         0.17353655839052    6.84517256189942   10.82887238252829
H        -0.19555615269339    6.61619632257412   11.93375391821053
B        -0.06044176254430    8.30562952060752    9.93123614568072
H        -0.70529875024371    9.22742344766869   10.29966941865694
H         1.15266066049839    8.72217309941776    9.92987233194240
B         1.40798569721341    8.42446174782734    8.65721981097002
H         1.91817610963825    9.39368112197367    8.21331741197455
Cl        4.05835177601130    7.26339839627702   12.13064951748935
N         2.18770489801638    5.15451054578227   13.18858943421272
H         1.74085037814798    6.07973592901203   13.11013080498653
C         5.90916099612489    4.40883669500117   11.56994987281429
C         5.20549216467610    3.47722853232161   12.32720191689190
H         5.55653683317260    3.19475400289110   13.31148921405602
C         4.03297493754926    2.86289603542900   11.80809290344904
H         3.54400429224335    2.09557213012607   12.40311348936820
C         3.65411410088628    3.01395291819481   10.45587403747935
C         4.37584948656920    3.96461834393502    9.68831018711032
H         4.15697020042604    4.07480761037798    8.63189878037661
C         5.43255978614459    4.69894521508800   10.25725664974477
H         6.00154570336899    5.38312853720612    9.63470522491306
C         2.61306488822807    2.13488514149536    9.82849803706412
H         3.09661918076881    1.38245391564845    9.20319791968798
H         1.94003479291614    2.71383088904068    9.19883105662849
H         2.02577638904154    1.62304243719179   10.58794629545068
C         7.18636744109317    5.04072008742336   12.06679648620979
H         7.46418497167391    5.83867118426775   11.36937896547636
C         8.30123006409180    3.98890208276205   12.06639057545219
H         8.07134975228121    3.18465052233276   12.76241999072079
H         9.24105705690396    4.44523216353096   12.36697799345620
H         8.42672678005289    3.56009549330882   11.07387545340772
C         7.02147752122187    5.66795125438029   13.45151416047915
H         6.20554856807617    6.38775278585712   13.43508434773304
H         7.93343870135997    6.18917438733656   13.73161951484800
H         6.81491292064051    4.91378906293776   14.20783882474729
C         2.92090405804784    5.15998305145306   14.45956738586862
H         3.71885211946301    5.90551986120821   14.39004315449208
H         3.36327149770731    4.16989185978909   14.61035885084409
C         1.99065382239171    5.49438752147015   15.62493543730332
H         2.55652940557922    5.48384356806696   16.55702879847913
H         1.59232730885904    6.50130739508911   15.48475047697190
C         0.84325417551363    4.48974773489181   15.68473854954363
H         0.14762688222682    4.76139472104313   16.47950578348615
H         1.23839969555643    3.49679299032621   15.91304489334334
C         0.11920753975564    4.45597040839180   14.34165588040156
H        -0.35520020187599    5.42099403463058   14.15378567975209
H        -0.66152141751734    3.69501615766941   14.34802159824298
C         1.11131092510705    4.15964426425675   13.21689906679122
H         1.55678854404818    3.17237223073172   13.37154609213745
H         0.59763864598851    4.17213503346939   12.25119774224966

