44
CSD_code = FINKAP | q = 0 | S = 0 | Stoichiometry = C19H20N2NiO2 | MND = 4
Ni        0.20999381983064    3.27841303120352    6.36704514989786
O         1.13334391283658    3.92985648879688    4.92998319833242
N        -1.14400194437478    2.60314008134267    5.26763654816586
O         1.49603052422662    4.02440212081063    7.43658704521996
N        -0.69902879017901    2.59974940917089    7.86104672851632
C         0.94739970896179    3.72317004673121    3.67934803379158
C         1.97363330349107    4.12734872841939    2.78301593357771
H         2.85366835878013    4.56950175578112    3.22381898125461
C         1.85732748796589    3.95737731950947    1.43354576112739
H         2.65610434280975    4.27108982714242    0.77712383519884
C         0.71092260518120    3.36402966712568    0.89462136230449
H         0.63436103483178    3.20506558243258   -0.17032676216250
C        -0.30932387303079    2.97997291474389    1.72322409478812
H        -1.16872891055680    2.49620118066600    1.28454240245522
C        -0.24059976687828    3.15179563638221    3.11967974415965
C        -1.31274028902188    2.73746382013364    3.98225496413072
C        -2.65868018290216    2.44930425297255    3.36926710738923
H        -3.45626962099295    2.78656548951758    4.02774771922837
H        -2.78040891473037    1.37889531478268    3.20030903323669
H        -2.76983626100827    2.96498394154796    2.42210748872491
C        -2.22308449940228    2.06402840799015    6.08212058571129
H        -2.72555303671829    1.22999969693895    5.57989688232837
H        -2.96351791646050    2.84883899201851    6.28988772249049
C        -1.62406019707703    1.56802201066760    7.40395020120481
H        -2.44196297751315    1.40967881842915    8.11721082393299
C        -0.85703640766778    0.26092737061841    7.17086744687298
H        -1.52596253742573   -0.51377819634919    6.80338622561052
H        -0.38756824049409   -0.08560427879611    8.08806278239117
H        -0.07150370187030    0.43938868460846    6.43389773272679
C        -1.18979432882718    1.98792041965352   10.18669786961413
H        -1.37044533872607    0.96872994024852    9.85877405987770
H        -2.14698858220083    2.44801028511737   10.43552626368231
H        -0.58454118391789    1.94090594925357   11.08604404182964
C        -0.48709254613106    2.80326378420628    9.12865020827568
C         0.43255238258768    3.81264272833216    9.57985613001126
C         1.39739781086787    4.35427477308430    8.67058695658331
C         2.33758090263472    5.28807170704818    9.18526147841349
H         3.07211419066960    5.66642651890229    8.49136332386963
C         2.29966031823221    5.70439007687950   10.48482001995640
H         3.02037169905263    6.42511438370712   10.84377716097957
C         1.31805988504664    5.21538031842495   11.35329639507722
H         1.27009635166847    5.57246203234758   12.37077886479417
C         0.41711757307342    4.28607039509312   10.90588992092887
H        -0.34680616464070    3.94300857236426   11.58711853349971

