29
CSD_code = FINNIB | q = 0 | S = 0 | Stoichiometry = C13H13AuClP | MND = 2
C         0.60006124157325    6.73010438566984    8.97144941886553
C         0.66206691360225    5.86647706049404   10.04822246441633
H         0.32293008556294    6.24032427423559   11.00634427460904
C         1.10035185631830    4.54336086356184    9.99128460721332
C         1.53127463447616    3.95207825301734    8.80362850296084
H         1.86831420696907    2.92404330223747    8.85006308514460
C         1.58199176251703    4.58228456781290    7.57498783645070
C         0.09876308926011    8.13239372552418    9.13548609863536
H         0.70141458018242    8.67283308966992    9.86495747558541
H        -0.93179631195965    8.12993074465779    9.48975120694824
H         0.13760436495132    8.66797496983274    8.18599028212741
C         2.06964192534664    3.85920457424708    6.35673874750107
H         1.44078816931000    2.99384302334874    6.14871680175768
H         3.08894532401352    3.50349425630672    6.50452535724984
H         2.05228610239897    4.51700751869157    5.48685664141583
C         1.10635244305025    3.74368820334436   11.22716893509446
C         1.57648194973423    4.28809698211207   12.42054088892600
H         1.96019755391920    5.29799104758922   12.43157562089139
C         1.58723201424858    3.53524721798839   13.57974876733286
H         1.96308572018440    3.96656194192203   14.49576328535758
C         1.11928923626459    2.23178449413922   13.56813696722323
H         1.12440815190121    1.64595513703281   14.47494560505435
C         0.64469681627008    1.68290276242858   12.38851119652063
H         0.27347851114563    0.66890126961682   12.37494162627536
C         0.64257076631048    2.42989829293832   11.22534973409132
H         0.25356906624480    2.00273418438716   10.31240054831358
Au        0.97182114313697    7.42066283176095    5.47483655949629
Cl        0.81129684038346    8.59703096425014    3.55234038812627
P         1.09938184272222    6.23399006115154    7.39033707641976

