39
CSD_code = FINQOJ | q = 0 | S = 0 | Stoichiometry = C14H12FeN2O10 | MND = 6
Fe        0.00021315857307    0.00024669337197   -0.00017798158798
C        -0.25129455729207    1.60802956628945    2.23643108658848
C        -0.09068151883314    2.08636654005960    3.52735894313374
H        -0.73436872497675    2.88325978928140    3.86519668258166
C         0.88395341842257    1.51985678223823    4.32860343220075
H         1.05636847080386    1.84480987914303    5.34322183830809
C         1.66502566552233    0.48924430615156    3.79903528324405
C         1.43909358168615    0.07138237301664    2.49198071626352
H         2.01167747964739   -0.72087871525598    2.03475943352443
C        -1.30159312103522    2.14510017960470    1.25560925023062
C         2.71281475957200   -0.13409452152123    4.64656265091427
N         0.50222556586506    0.62156596612301    1.72866406390206
O        -1.31486271031090    1.49878266235746    0.16078961429112
O        -1.98699865014973    3.10158535757275    1.56376957832534
O         3.37827205909983   -1.10973197012293    4.02204348156093
H         4.04926292854728   -1.49051204808501    4.61044997962464
O         2.95031644949357    0.19724962458848    5.77963261963187
O        -1.30715338678508   -1.50644779208674    1.03946086907141
H        -2.15214738162194   -1.71135094485813    0.62826112947997
H        -0.77202494145204   -2.30942665379434    1.04289990903296
C         0.25101795559342   -1.60809109921061   -2.23631000512513
C         0.09056919414383   -2.08629393070061   -3.52731282079418
H         0.73420156030651   -2.88325983421546   -3.86509328940005
C        -0.88399443257013   -1.51972944582887   -4.32860397019751
H        -1.05651718237086   -1.84481440454521   -5.34316785547957
C        -1.66515296567606   -0.48919689344606   -3.79900018587056
C        -1.43940431255672   -0.07150400309724   -2.49185365855343
H        -2.01183862126992    0.72090294750434   -2.03469450179721
C         1.30148010694797   -2.14503196940484   -1.25558697058651
C        -2.71303037400114    0.13402383788029   -4.64651522615859
N        -0.50271724347610   -0.62185401938790   -1.72846272686309
O         1.31469158962586   -1.49887122081822   -0.16067502503115
O         1.98688782621967   -3.10148853017131   -1.56379144820467
O        -3.37837873053622    1.10980255159482   -4.02211181461182
H        -4.04924194779660    1.49067363165312   -4.61060750985928
O        -2.95026268895468   -0.19712424972540   -5.77970844272593
O         1.30805876169279    1.50626407212089   -1.03931928315012
H         2.15238848389789    1.71160077431154   -0.62751829294274
H         0.77314447600419    2.30895471141354   -1.04421955297123

