58
CSD_code = FINQAU | q = 0 | S = 0 | Stoichiometry = C19H32Cl2N2P2Ti | MND = 8
Ti        9.71588578968531    2.86166259955480   -0.01574037186793
Cl       10.39505984309088    1.95079382448455    1.91831928418287
Cl        9.16202412325427    1.07779306384833   -1.17583153549519
P         8.43085021295801    5.07588171349405    0.06480615761735
P        11.08752335235432    5.34378321981433   -0.29921771008754
N        11.97020819280286    2.31625641919708   -0.59422652579089
N         8.02476340990780    3.48671555388050    0.44182659430425
C        10.00317289547367    5.21149024159254    1.03933734416254
C         9.72784548405921    4.57237761018099   -1.21083757442482
C        10.18870377182084    5.71920350250955    2.44121425520134
C         9.07995771505076    5.13952463909187    3.32095131504365
H         9.19767041619495    5.45888209778821    4.35462835155255
H         9.10938945151023    4.05029340404490    3.28125265589417
H         8.11224223820902    5.48379870470366    2.95609037080550
C        11.55894302654822    5.29271377264134    2.97405044255571
H        11.72698814490292    5.70534084253754    3.96692852159631
H        12.34705285519802    5.65483964645367    2.31172071323899
H        11.60796536250579    4.20615519389447    3.03798986239637
C        10.08856759289138    7.25113576935736    2.42709780645158
H        10.16440038478021    7.64710399869217    3.43802995012255
H         9.13470142253172    7.55956365842982    2.00137282059654
H        10.88820207336683    7.67448464077087    1.82108807073821
C         9.52783051541223    4.73023036708997   -2.70259826709090
C        10.62692047820803    3.95635188153686   -3.43903018156863
H        11.61082332996516    4.27290777376484   -3.08809893836897
H        10.56825751387871    4.13182127998483   -4.51171673525934
H        10.50921845224387    2.88767698920820   -3.25549576216340
C         9.58653250472663    6.21318580056834   -3.08567079028716
H        10.57415062817691    6.61936735260025   -2.86701875995355
H         8.84977759832489    6.77467059067961   -2.51163512391042
H         9.37981834763682    6.34906669743363   -4.14582750750515
C         8.15729253132440    4.15649083589343   -3.07127750605148
H         8.09814030387657    3.10796425801243   -2.77315420112412
H         7.98278866301790    4.22778422716772   -4.14328319929948
H         7.37505854343875    4.71468598919446   -2.55432101235732
C         6.71920490375368    2.94937071134382    0.76474550989538
C         5.97230673592697    2.57836477495314   -0.52726623138587
H         5.77861431258220    3.47679991808806   -1.11112292624885
H         5.02483366321962    2.09914478603401   -0.29265249418686
H         6.57531318777804    1.89268751998077   -1.12128301804295
C         5.88798905308960    3.97060024486872    1.54811142881386
H         5.83339973388981    4.90497408457595    0.98770380799536
H         6.34458155066800    4.16490301331341    2.51550180320663
H         4.87922617551427    3.59657616634464    1.70505729971931
C         6.93478184768261    1.68854432067750    1.61659464756787
H         7.50453148214045    0.94696250944669    1.05119034657073
H         5.97870786700025    1.25379614251563    1.89928048648296
H         7.49015470943930    1.93970355136805    2.52092933212782
C        12.89629869944666    2.65675414387376    0.30264324902326
H        12.63205564674396    3.44987844796450    0.99466558132815
C        14.14020037949324    2.05343652438037    0.38168837441560
H        14.84450483024312    2.36876682237963    1.13503059349698
C        14.45031892687441    1.04100083777334   -0.51206576440871
H        15.40632963467085    0.54041509955670   -0.47365472901596
C        13.50048618669919    0.69047748551072   -1.45653351714993
H        13.69126790788384   -0.08688889460716   -2.17944887317443
C        12.28259442844533    1.35280350080406   -1.45938116951471
H        11.52377096692598    1.08653013210417   -2.18585654879324

