39
CSD_code = FINQUP | q = 0 | S = 0 | Stoichiometry = C14H12CdN2O10 | MND = 6
Cd        0.25000994921756   16.38691007820386    5.92782068642409
O        -0.13588592638458   14.68030011832297    4.63369868107909
O        -0.21480064552384   12.45701898564175    4.67452379274975
O         3.33461575092865   12.57774661780602   10.62707333848179
H         3.78346264871557   12.70865605590539   11.47731158159131
O         2.95417739736126   14.77029342248917   10.79784719632900
O         0.48930287102518   17.86677289881705    7.30569236927182
O         0.15119293245325   20.04273705409481    7.63305181511290
O        -2.76353362715179   20.34152417695214    1.25732750080015
O        -2.08245723621285   18.22861179611430    1.02097467043327
H        -2.49693579565021   18.31452014271064    0.14775817718588
O        -2.17667339946223   15.86648038809631    6.15491231756516
H        -2.56976406164787   15.38937917468153    6.89367314212624
H        -2.12273091050542   15.24368590662365    5.41474006337939
O         2.11718195127738   16.26835066928979    4.32821541759264
H         2.27235566228656   16.89897433842440    3.61664272170749
H         1.61643308115061   15.53104171368025    3.94245444692493
N         0.98464832038902   14.71437435727811    7.11832502357529
N        -0.49685004692389   18.07080013303615    4.76420937548814
C         0.09410589818024   13.53721345567011    5.14152867812260
C         0.84112776928106   13.54338823777464    6.49592618952425
C         1.32446742947762   12.35307716662477    7.02731930424834
H         1.16541728074137   11.43950878979711    6.47541080693158
C         1.98982727641661   12.38449494240935    8.23817734767591
H         2.38846860494761   11.48684695220695    8.68551440205518
C         2.13867543753751   13.61254400660669    8.88242634677850
C         2.83816563638612   13.74137487174507   10.18817888984537
C         1.61369534924895   14.75723546948546    8.28228688293935
H         1.70696658156114   15.72643219696810    8.76013510676820
C         0.10082968716947   19.02491197168651    6.97118742737312
C        -0.51594433423086   19.14837918368846    5.54864581182465
C        -1.07009966686293   20.35706077403811    5.13594145434202
H        -1.04652810347360   21.19060998833112    5.82076995805212
C        -1.62741234972280   20.43963515519690    3.87618883881403
H        -2.07509381336377   21.34871130197104    3.50219253456532
C        -1.61260370444525   19.30371672448575    3.06311502693953
C        -1.03419362889250   18.13687558500571    3.55447762781421
H        -1.01101018246337   17.23277616754024    2.95647934321125
C        -2.21501008283142   19.37022903061196    1.70744570433609

