62
CSD_code = FINSEC | q = 1 | S = 0 | Stoichiometry = C28H21F3N5O3SZn(1+) | MND = 6
Zn       -0.25262575455961    8.54136302720048    3.23501425320997
S        -2.45514890311159    8.57065883833523    4.85962757205924
F        -3.80063917456648   10.30506608604348    6.41475570823757
F        -4.55758820261894   10.14824268254310    4.39755977255501
F        -2.71467138785302   11.19177468440763    4.77946444726684
O        -2.27506589109478    8.60954181357598    3.40199855716676
O        -1.20408552882700    8.83065075980032    5.53203187610327
O        -3.24212010606785    7.48850258443967    5.34571149512592
N         1.60740063064814    7.66939194837219    2.51268394866889
N        -0.50165953264960    8.20728086099268    1.12422110647720
N         1.15490637981238    9.31917106795534    4.57334555752348
N        -0.38600531449031   10.66107469126792    2.93888445455915
N        -0.19077360057349    6.64066516885890    4.08833527348938
C         2.53238417957478    7.23974353802262    3.35567009771242
C         3.80758068147106    6.92246310144199    2.88715221898673
H         4.58905784714258    6.57972566127872    3.54174426734961
C         4.07717914131509    7.05435372922618    1.53425739231376
H         5.06431249051010    6.83152806116358    1.15913468126989
C         3.07278438130787    7.44158989902180    0.66307034042876
H         3.26760393756224    7.50859291312343   -0.39369657588116
C         1.82259671862367    7.73019606460799    1.20122791225895
C         0.61610279260537    8.02474320409932    0.41167215722519
C         0.59743494404859    8.02856892603043   -0.98129947004819
H         1.50302110785791    7.89068257381212   -1.54815250119388
C        -0.60943549702381    8.20315384643298   -1.63942331426399
H        -0.64601694045916    8.20947016879826   -2.71803735383059
C        -1.76435150641414    8.35266252270557   -0.88888708092904
H        -2.72643230765429    8.46802167358612   -1.36107284598616
C        -1.65753117028627    8.35361657952316    0.49500205860027
H        -2.52165189873592    8.46677246893512    1.13394562555546
C         1.82251900984217    8.50107869207138    5.36892199928522
C         2.22683628095320    8.91081512685987    6.63664233453567
H         2.74493995168286    8.25190413660338    7.31066859426172
C         1.93193230447574   10.19908164643259    7.04762970937371
H         2.21668757460836   10.52979592855516    8.03473763897579
C         1.26810845874169   11.05600100170088    6.18823782151090
H         1.02820499102500   12.05800670363952    6.50027774052253
C         0.88324660029114   10.57024055351493    4.94409752972177
C         0.12074585149366   11.35478424192784    3.96425169271589
C        -0.08175016937889   12.72794083633320    4.08789772313868
H         0.35750847225664   13.27888708984092    4.90232892372854
C        -0.85792478072186   13.38469067155924    3.14964885258398
H        -1.03991365219792   14.44477869459223    3.23496392557099
C        -1.39798438571437   12.65219331844725    2.10540594233553
H        -2.01824120259762   13.11833739196259    1.35730829928473
C        -1.12562164966988   11.29560182091875    2.04163034572217
H        -1.52293339643938   10.69331066930596    1.23835760014856
C         0.81182700629658    6.29071909503715    4.89819934048640
C         0.67823705505174    5.20795744568506    5.75898197763818
H         1.46610558371793    4.91459329178325    6.43000118060005
C        -0.49943966210202    4.47545827542770    5.76335819534338
H        -0.61611270853651    3.64688917069739    6.44515543585352
C        -1.50108000437775    4.80997469996707    4.87155764910823
H        -2.42300782543170    4.25618142223633    4.81874182908305
C        -1.29593230744121    5.90411976458264    4.05123974095158
H        -2.04483553319687    6.20841705257501    3.33718520257347
C         2.11573824671280    7.10467517091344    4.82061815944445
C         3.23822360578806    6.43697948090618    5.62447620680815
H         3.47828855518977    5.46521489314019    5.20019727676719
H         2.95036607793104    6.29208132406861    6.65994631730280
H         4.12723912355633    7.06278360672450    5.61333681781878
C        -3.45733998730963   10.13223763638908    5.14455636484926

