25
CSD_code = FINVIJ | q = 0 | S = 0 | Stoichiometry = C13H10AuN | MND = 2
Au       -1.54573633039522    4.95214068645540    3.60499106882257
N         0.31305171124966    3.95011960384361    5.71218481178021
C        -0.22185438239954    4.08688302148310    4.68061560156094
C         0.97222751777527    3.75752867733353    6.87819027173130
C         2.09007943034550    4.53759388517744    7.17465736793986
C         2.75863640681214    4.33246988614609    8.36546968007779
C         2.32310798393966    3.36263373693254    9.25561077176025
C         1.21119899559182    2.59060968500410    8.95537852445405
C         0.52913974716283    2.78034563537796    7.76960758344850
C        -3.02861810426428    6.09244957006301    2.83932633543450
C        -3.02768686940455    6.49752450696988    1.50062766325647
C        -4.04345632743070    7.26242061135013    0.95282774984659
C        -5.11252867423110    7.66094729736675    1.73415408761663
C        -5.14790945563743    7.28362850963658    3.06408146096640
C        -4.12399865434081    6.51840724244797    3.59594755224528
H         2.41634910938828    5.28963446188889    6.47221953013616
H         3.62396446259944    4.93324948927484    8.60061570151199
H         2.85098576918071    3.20798588697494   10.18399936040920
H         0.87353581722440    1.83585545335307    9.64911596596477
H        -0.33823433033878    2.18715773804456    7.52231176413694
H        -2.20666544829101    6.20580496878448    0.85636649130840
H        -3.99756753799398    7.54892295509422   -0.08981723627437
H        -5.90782814467578    8.26014772072374    1.31191670138350
H        -5.97588753257966    7.58674388873312    3.69169364311155
H        -4.18500515928779    6.24239488153986    4.64240754736947

