27
CSD_code = FINVOO | q = 0 | S = 0 | Stoichiometry = C9H11CrNO4S | MND = 6
Cr       -0.41240101244648   -0.11848601446828    2.61771699434747
S        -1.10427967825736   -2.09655225814744    1.01251979027066
O        -2.83995795048335   -0.01826471114096    4.37629082285032
N         0.92612310119232   -2.31466297196549    4.36105581717094
C         0.25331994641627   -1.87492078115354    3.31686111818839
O        -1.41509474368977    2.29118855527985    1.12632158716730
C        -0.01285343301874   -2.89691030022142    2.24850492529012
H        -0.50241148128702   -3.81152651250650    2.59809239185821
H         0.90084643560039   -3.17247406360371    1.70876971326966
O         0.39428189709552    2.07139998332904    4.47719176810158
C        -2.72434082496245   -2.62095683215216    1.65650034274375
H        -2.85368429721730   -3.68506655938674    1.47232427436488
H        -3.47608368018574   -2.06043044234482    1.11001812587285
H        -2.79330494034118   -2.39459449857549    2.71684803991938
O         2.41036045957840   -0.06547560386478    1.61911264930675
C         1.20345336639831   -1.45129512223755    5.48597997052229
H         2.28038701757165   -1.30880660949501    5.59669716485433
H         0.80950981020940   -1.89585930414692    6.40229573277229
H         0.73211551946502   -0.48450374889442    5.32045747649327
C         1.43443548704711   -3.66858058178082    4.50485630786474
H         0.62320601940307   -4.37270344321690    4.71159941055896
H         2.13967328600462   -3.70548474608429    5.33203238125042
H         1.94982569551834   -3.98931518353454    3.59842274696831
C        -1.97269956424799   -0.12203198886302    3.62032880509525
C        -1.05212072020807    1.32576256569346    1.64144601993103
C         0.11578027174239    1.17477657418265    3.79306187547714
C         1.28541401310221   -0.08102540070055    1.87369374748873

