31
CSD_code = FINVII | q = 0 | S = 0 | Stoichiometry = C10H13CrNO4S2 | MND = 6
Cr        0.23970305235927    6.01493568196023    5.60839985118704
S         2.31693026944182    7.41137237350954    4.93809795571283
O        -2.16272258468291    4.39697958964451    6.32354070583230
S         3.52359911819567    7.19789462236564    7.67666981866931
C         2.99191854800594    6.23754957616481    6.19586251094475
H         3.88833182568958    5.78170648833354    5.75697831020312
O        -1.93252197980530    7.40888880336938    4.06840301103509
C         2.98831923499971    6.65611521105773    3.42319147798970
H         4.06861073613321    6.78152888368745    3.40414922242744
H         2.54256342535775    7.19123040798177    2.59071380223314
H         2.71347960122661    5.60609396143977    3.37633671521043
O        -0.22098366115274    7.52898563235072    8.15832657171119
C         4.82692552068493    8.20543392142117    6.92024117032186
H         5.63964769871482    7.56844113589580    6.58047348063275
H         5.18130778261608    8.87683292003655    7.69483404499266
H         4.40379062203459    8.77358983493669    6.09624998491048
O         0.40914658900976    3.89733994355101    3.49331024383208
C         1.16778167113873    3.29151478626769    7.64613702544583
H         0.20862972522281    3.59284946616145    7.23134715276373
H         1.09041216229206    3.23343882989573    8.73346422299837
H         1.43461068227760    2.30416833042736    7.26273864710389
C         3.46745855267535    3.92759998607141    7.85960250360796
H         4.24504010442333    4.61640872508885    7.54815382494236
H         3.75096851742907    2.91317379627895    7.56889247982848
H         3.39779150807001    3.96728504986583    8.94874194193276
C        -1.18761770913414    4.98918550877339    6.10588171863537
C        -1.05446765356010    6.93001521862069    4.64253805901815
C        -0.00462945131200    7.04839005983819    7.13735252476935
N         2.18007515680332    4.25420436758475    7.27690358522353
C         1.87698622561663    5.29003731294774    6.52240470453831
C         0.40801470922627    4.78010957447148    4.23946273134555

