27
CSD_code = FINVUU | q = 0 | S = 0 | Stoichiometry = C9H11NO4SW | MND = 6
W         7.80818540773606    6.51753861569848    9.59225344994644
S         8.50957582610124    8.58526840368664   11.11451635802953
O        10.40326484465883    6.61264869960195    7.84335188638073
N         6.49028964781233    8.82340679300547    7.76735577924253
C         7.11186021310702    8.38797806160651    8.82849266156388
O         8.99628706780996    4.12478219650418   11.22597524426190
C         7.40905671544493    9.40662046081066    9.89270735834607
H         6.50052101788305    9.68085218566848   10.44093405143832
H         7.90014565033890   10.31996370783602    9.54339737423895
O         6.76268643810578    4.32666567863446    7.64737769390011
C         6.19999302343826    7.94016691973747    6.66078098822680
H         6.63169468746246    6.96168675384642    6.86351195346529
H         6.62805918626084    8.34494646085440    5.74195370624181
H         5.12082235056434    7.83723198455151    6.53376263232717
O         5.10132486886738    6.43774175640042   11.16504369347212
C         6.05786630164914   10.19659584291925    7.56393609855944
H         5.59704094667637   10.59589437336778    8.46744498600908
H         5.32694793834988   10.23137375772090    6.75925972966041
H         6.90319696013658   10.83394930372640    7.29131546543829
C        10.12510061735084    9.10565771443418   10.46349764616914
H        10.15836870424589    8.96333798147419    9.38708703612793
H        10.87490805942038    8.48258637912084   10.94153066627354
H        10.29289786111088   10.14870538332786   10.72376077338916
C         9.47539877494096    6.59879909185043    8.51467704383959
C         8.55741003051586    4.99087621574970   10.62287812772060
C         7.14040595582017    5.15956083861194    8.34728358938618
C         6.10719090419026    6.45146443925436   10.62371400634536

