72
CSD_code = FINYIL | q = 1 | S = 0 | Stoichiometry = C32H30ClN4P2PtS2(1+) | MND = 4
Pt       23.07320571744808    2.19257407705246   19.05895634861108
Cl       24.61624483968069    3.81184008768279   19.41488193253549
P        21.66335983988933    3.92725092061298   18.63831037135908
N        20.23412282423445    3.70131032519148   19.44082889769846
C        20.23862615747822    3.29533689766201   20.66599054683318
S        21.63453405780927    3.02278447889859   21.69742019785731
C        20.58924662848959    2.48795198743201   22.99064024821763
H        21.00966541017142    2.18481994455953   23.92580293087153
C        19.29346073743757    2.55190716904162   22.64812993225823
N        19.11653727636319    3.00649076916708   21.35529743212588
H        18.20551174621575    3.12706671370878   20.93856023860905
C        18.10393353523722    2.20027954967126   23.46509833584811
H        18.41449603002965    1.83847445472652   24.43963295906955
H        17.52041525810639    1.42571027101120   22.96931630952007
H        17.46677544785283    3.07273803836505   23.60342665941118
C        22.14636001388758    5.65298380295504   18.90071423237673
C        21.73275618623612    6.36066003644001   20.02228978561332
H        21.09297055499893    5.89027374116791   20.75595103661292
C        22.13979104684223    7.67221401158782   20.19238286615553
H        21.82044580434519    8.22356125287722   21.06373985829152
C        22.96074216334178    8.27230409346025   19.25215493725240
H        23.28246247306395    9.29283584194930   19.39249123323447
C        23.37418174301537    7.56447183800643   18.13325814228133
H        24.01632207487835    8.03318355503302   17.40326604075339
C        22.97047485551829    6.25589817226323   17.95426902676433
H        23.29545144410760    5.69096703767017   17.09161891690129
C        21.20450537069947    3.85900703862458   16.89433821757819
C        20.09947195219908    4.55580790559067   16.42353291237142
H        19.50335490437622    5.12990801360880   17.11762664059774
C        19.77860119275798    4.49374146937679   15.07991513710179
H        18.92029857105285    5.03040503551651   14.70491553358841
C        20.56245587332009    3.74947416235558   14.21154204409581
H        20.30970147202292    3.70678108738369   13.16315393096846
C        21.67384041639254    3.06636474357977   14.67967209275563
H        22.28539915787524    2.49601691442329   13.99720099328599
C        21.99636038085201    3.12125677004009   16.02298134792427
H        22.86961741370705    2.59708198312241   16.41318824341874
P        21.54404567335830    0.55508968825854   18.61269667565677
N        22.61202708140733   -0.75690327508397   18.38815110390544
H        22.26825020256488   -1.69797572455856   18.23231059577265
C        23.88073517098348   -0.64926244582216   18.88071916711069
S        24.92992162701742   -2.01770530127638   18.98247768599906
C        26.13406251620801   -0.97772768984952   19.65927378039601
H        27.08955870679106   -1.37146968475946   19.93576265505080
C        25.69175834465262    0.29780350985714   19.76357058876849
N        24.40303926553976    0.47266427156051   19.30956448296262
C        26.48271683232901    1.41566423699093   20.33333324658226
H        27.40319154456130    1.03649125677997   20.76691825032927
H        25.90491184253177    1.93532250697800   21.09562849879174
H        26.72275308124591    2.14156511442745   19.55829196140786
C        20.48864265385389   -0.06926972902879   19.96391175149310
C        21.13101780894517   -0.24166005303466   21.18912863340760
H        22.17936908020496    0.01955845193656   21.27972845167418
C        20.43690851695073   -0.73662343725580   22.27590171913328
H        20.93959681675004   -0.87813724020663   23.22012268613264
C        19.09282590294401   -1.05271161596093   22.14796624564007
H        18.54856755123381   -1.44062024679043   22.99517533912653
C        18.45078827849972   -0.87846310069676   20.93288118081572
H        17.40640651499780   -1.13301790235452   20.83218341275080
C        19.14354065012638   -0.39057880796658   19.83712114846853
H        18.64252838370550   -0.27032471461125   18.88820460758239
C        20.52367716204487    0.49812104255820   17.12248082343601
C        19.40185712707960    1.32467573218472   17.07576044639299
H        19.16564096451108    1.94778276344766   17.92823203432917
C        18.62027091021610    1.36442197449500   15.93748444487421
H        17.75091952758831    2.00272685342330   15.90394660418963
C        18.95885763255651    0.59209611848243   14.83708396790104
H        18.34875418528843    0.62491233455217   13.94790529755307
C        20.08517646919672   -0.21258076111922   14.87319100754758
H        20.35460773573431   -0.80435642837103   14.01182118642239
C        20.87345982208329   -0.25829604020084   16.00965879986880
H        21.76221384440950   -0.87174584879052   16.02451500780152

