70
CSD_code = FIPBAI | q = 0 | S = 0 | Stoichiometry = C22H41B2O4Rh | MND = 9
Rh        4.39174005006272   -5.29703329440525    6.29070714147640
H         2.90880732747470   -5.45429905746810    6.54667500372707
H         5.16437115804940   -6.56939944848991    6.54076764891278
O         3.59565427439713   -7.12161341486204    8.69290969759973
O         4.22556411875850   -5.02261132176769    9.24380818615571
O         3.63701630307386   -7.98202624997979    4.91217380963371
O         2.99566760230942   -6.12964258311611    3.79115187173453
B         4.03457430603871   -5.92168700969526    8.21864634347342
B         3.61640893211390   -6.62093029558122    4.91780753252889
C         4.16482363331652   -3.35934413523026    5.22505866002358
C         4.50614659863711   -3.07208447292750    6.59955733287044
C         5.79839486251757   -3.59679307954262    6.84864873417794
C         6.24828611427624   -4.25179099426769    5.64823662535038
C         5.27004644998279   -4.02705773517849    4.62666199035149
C         3.01488708925351   -2.77845427729545    4.45569423858234
H         3.34448843688748   -1.88480129462626    3.92039308680877
H         2.19638743148098   -2.50119989984449    5.11563633245644
H         2.64365260070308   -3.49900383131388    3.73047805296100
C         3.76026266764619   -2.16386966070481    7.53104645809584
H         4.21506844352501   -1.17051265871151    7.51888710067341
H         3.79919738746370   -2.54862023233082    8.54785744683695
H         2.71752967798451   -2.06706441540007    7.23819886174472
C         6.62562732953629   -3.32260949862696    8.06711440964572
H         7.07485413618496   -2.32934553296995    7.98964660971209
H         7.42475342711548   -4.05224011841380    8.17423201496189
H         6.00762810556684   -3.35425225575680    8.96055877795621
C         7.65727641849031   -4.71157039530666    5.39981568908697
H         8.26413701812134   -3.86347960371650    5.07324363053725
H         7.69311867275252   -5.47502960933524    4.62576060510022
H         8.10360274523950   -5.12261691885204    6.30236850269465
C         5.45478769652547   -4.25183046358890    3.15667243701102
H         5.78647930226820   -3.32350393051739    2.68469294891024
H         4.51976905298647   -4.55809283813558    2.69458523798993
H         6.20387331151741   -5.01725843195780    2.96609193834239
C         3.31373458363780   -7.00693941750565   10.09121245815485
C         3.76217578449477   -8.27691295309050   10.80910653644462
H         3.14824195343031   -9.10643043335522   10.46873922938652
H         3.64181827296930   -8.16524244936186   11.88378319857866
H         4.79644483159050   -8.50997643178909   10.57998981470247
C         1.79364618544022   -6.85751753346868   10.22912102252148
H         1.32207308132181   -7.71705159138638    9.75947685490539
H         1.45848756771390   -5.96532176675329    9.70680918075709
H         1.49388397854820   -6.81183725442889   11.27225186007856
C         4.09009189743779   -5.70573157536710   10.49424936128045
C         3.36884162220297   -4.80276923461154   11.49174939499236
H         4.00281430983857   -3.95020007380178   11.72452078800114
H         3.16452363150691   -5.34711970410048   12.40991044975253
H         2.43779363386853   -4.42888276735842   11.07828415962804
C         5.50742205955637   -5.99611988361089   11.00271120887573
H         6.04376727402725   -5.05495600842391   11.10338080517940
H         6.03843363320471   -6.61219070854785   10.28168627795963
H         5.48454823985474   -6.49275121805434   11.96823971105884
C         3.14139874293949   -8.46693069277189    3.66023685764506
C         4.36197874061702   -8.89358173698121    2.83512432627205
H         4.91072382553038   -9.64383985658542    3.39892098354249
H         5.02174471569955   -8.04431485217116    2.67790400706840
H         4.06546170265879   -9.31368539400427    1.87829081589583
C         2.24997212426950   -9.68155105735480    3.90429585937626
H         1.47716144635259   -9.45626795726214    4.63121395313765
H         2.85961825653116  -10.48818226679279    4.30260998776364
H         1.79376588011533  -10.00919955332384    2.97352180774833
C         2.40965943898194   -7.21345378230402    3.06463939389900
C         2.61509276766162   -6.99469503802745    1.56697373244189
H         2.25013829445984   -7.85321684220538    1.00949863564868
H         3.66223775933475   -6.83190828827938    1.33251070297029
H         2.05725146585873   -6.11395401969938    1.25703038178426
C         0.90855710020870   -7.19519621987205    3.37692252451212
H         0.75328351660714   -7.31268579836718    4.44605937418603
H         0.38388651421686   -7.97785563044952    2.83689940668391
H         0.50394248532738   -6.22946104838401    3.08203997905641

