82
CSD_code = FIPKOE | q = 0 | S = 0 | Stoichiometry = C26H44B9P2Rh | MND = 10
Rh        1.98737268748711    0.33795021458660    5.78318971505188
P         2.29602827757244   -3.25840727220125    5.89552052206595
P         3.29719522600353    0.09449966488550    1.14244700629062
C         4.00063806610216   -3.20452236525629    6.57478115326958
C         1.31845439093065   -3.68128615017655    7.39890321168104
C         2.20605837654882   -4.82054751922682    4.95921616976360
C         3.30620711408665   -5.61814285187439    4.66905590858010
C         3.15894632063681   -6.76302137071887    3.90481967075718
C         1.91436109248765   -7.11991236830662    3.41518880833304
C         0.81412367935529   -6.32069360491417    3.68516003100130
C         0.96052432146586   -5.17804677255740    4.44697219435266
C         4.10407033322765   -1.38843328881327    0.39396881845714
C         2.25307418604473    0.70012265824792   -0.24927133285848
C         4.66887022496270    1.30856907015544    1.16495012335096
C         5.39435292661554    1.64528809003359    0.02758447213560
C         6.41468578994763    2.57624283717239    0.10061734607425
C         6.71926598364243    3.17914411180455    1.31024394968347
C         6.00272031827513    2.84563427638705    2.44756266053856
C         4.98255628941763    1.91335424638053    2.37518513409404
C         2.54350211001084    0.57215935195402    8.12136644066532
C         1.52405108073725    1.47791210164576    7.76905093246839
C         2.03965892691148    2.35236224495945    6.75715716601799
C         3.41306822725228    2.03070662098147    6.55562559475947
C         3.70784405875686    0.89785432594121    7.34791362191433
C         2.49030835545308   -0.39936886204591    9.26389366368943
C         0.18699353258659    1.62876422657674    8.42779617024392
C         1.34498672382199    3.59152497202760    6.27757829377573
C         4.42130502337132    2.85226391901943    5.81089298561773
C         5.08817733630318    0.33864018930313    7.54392595175818
B         0.38688032167571   -0.93303004306556    5.58513776585743
B         1.76536685681801   -1.72240265783004    4.95586792269465
B         0.21462768501908   -1.53102404796495    4.00595223582890
B         0.15482228254728    0.27420612514570    4.39709090310910
B         2.97424790212318   -0.78058668005601    4.18550408644384
B         1.76216858090210   -1.74068588846374    3.17811936969560
B         0.66600260453627   -0.34518211470680    2.79625740236162
B         1.59350935503209    0.91917024267403    3.69428578364722
B         2.38445365034496   -0.21178573330150    2.73321020908583
H         4.08030201280365   -2.30099820473274    7.17318772399457
H         4.71986873912727   -3.12977347521295    5.76405336874250
H         4.22493972763289   -4.07200811648760    7.19202395363572
H         1.35503528121465   -2.83763294740620    8.08229981001354
H         1.70811987299153   -4.57035999942417    7.89108957070664
H         0.28213680605919   -3.85083585695723    7.12085616059346
H         4.28449587359857   -5.35280930757156    5.04011608361408
H         4.02032867751435   -7.37916810327604    3.69013675125601
H         1.80290798461622   -8.01401484205852    2.81988988979437
H        -0.15653326068063   -6.58911650388451    3.29518463957569
H         0.11101597070868   -4.53918039933374    4.63782860590955
H         4.84668317039790   -1.77171647351562    1.08902403537047
H         4.58481885018084   -1.16480665846352   -0.55518145364325
H         3.34681468838735   -2.15374275467438    0.24510769806155
H         1.46653385239886   -0.02773169368804   -0.43037157980978
H         2.82216356029527    0.85444273347252   -1.16270308657431
H         1.78878220742194    1.63662146424771    0.04861586635149
H         5.16617438951959    1.18239946438696   -0.92251687825522
H         6.97323920815349    2.83441665818799   -0.78767564074087
H         7.51440441525485    3.90826422032955    1.36337473779190
H         6.23916083345779    3.31662378788556    3.38998435840763
H         4.41046461231504    1.64170458768350    3.25008732737091
H         3.13243894220046   -1.26352104271397    9.09708334082396
H         1.47355647146608   -0.75258702343056    9.42663561085606
H         2.82244580066806    0.08611752626866   10.18570954782066
H        -0.14704115119272    0.69152415074024    8.86722171209649
H        -0.56123192845297    1.95392155510557    7.70904283574133
H         0.24036304644208    2.37571787700075    9.22432273948496
H         1.82716979198394    3.99064200699046    5.38896520830146
H         1.37010103275767    4.36023782919628    7.05400520530209
H         0.30429067405509    3.38551734263699    6.03718364231491
H         3.97321847166792    3.34432922367917    4.95049169415127
H         5.25011189586424    2.23353960989785    5.47310325849256
H         4.82720053004469    3.62869183233591    6.46639798629624
H         5.08687973904407   -0.47669140644364    8.26452521311789
H         5.75255604210631    1.11606141673123    7.92713938546082
H         5.51202209385263   -0.02600227649129    6.60764166345887
H        -0.26944409735153   -1.20468620445692    6.53419445233443
H        -0.67024280477098   -2.30641462598644    3.84266345754288
H        -0.79875623847385    0.96149056694239    4.54665513115179
H         4.14122889832570   -0.98239428269464    4.35670574477750
H         1.99708565596432   -2.73916055927862    2.57041720173751
H         0.00222012185275   -0.16876581224916    1.82908188556280
H         1.71328931955832    2.08276481832548    3.48957907876320

