66
CSD_code = FIPKEV | q = 0 | S = 0 | Stoichiometry = C27H30N2O6W | MND = 6
W        22.00789193569827    8.49025354990368   10.36485216991227
O        19.12460787600560    9.14005336161995    9.30364609474004
O        23.18403951948424    9.64412946202104    7.68823479329632
O        22.05455526632283   11.34775315100232   11.67836941176624
O        24.90788467328107    8.31829439536220   11.54840339273451
O        20.76121851330732    7.42024635809553   13.04361527437286
O        22.47043034749664    5.40817824871047    9.77909826013666
N        19.65995374939498    5.31822981440429    6.76128562015132
N        20.51901032853064    5.25866684436187    5.72783545357691
C        20.16338505774143    8.84709236427301    9.67584190984952
C        22.76663697894927    9.21924828419175    8.66036363449050
C        22.02718751127055   10.31335803765156   11.19521230010292
C        23.86178485468741    8.28881997219053   11.08818014803537
C        21.22868649820752    7.77863915191400   12.06224531360231
C        21.95976475686838    6.56340849098774    9.43252653285004
C        21.15712527026913    6.40701725286963    8.23171760699450
H        21.28485168913759    7.15289348230437    7.45662732564409
C        20.25226120535720    5.42442933177625    8.02523920314905
C        19.92893038008118    4.40935178952691    9.03655516186813
C        19.70619502612324    4.75934808430199   10.36716245238236
H        19.72852388244934    5.80338083696707   10.65538407650078
C        19.44969480677224    3.78392394756341   11.31139190792868
H        19.27329548644513    4.06609438667831   12.33878838048110
C        19.41799524549964    2.44815124229419   10.94104702836200
H        19.22107318583847    1.68706496684129   11.68113267759931
C        19.63737540362536    2.09257530831398    9.62028786071658
H        19.61389852941225    1.05300817713046    9.32945910354317
C        19.88464738368801    3.06588573707458    8.66976422282274
H        20.06040036489523    2.79270001691094    7.63986027516388
C        23.21814785325421    5.25440917245543   10.97600523500878
H        22.72888861821501    5.79916253844395   11.79336806826242
H        24.22086549402004    5.67170864086280   10.82276497701982
C        23.30076044627985    3.76832460825453   11.28719873544599
H        22.30291342622063    3.36196639090638   11.43216158554294
H        23.88441709176258    3.61310911190330   12.18952346275463
H        23.77259539743412    3.24070719437464   10.46281090542492
C        18.36006885552158    5.24469068048968    6.33688294183992
C        18.42861511142261    5.10353507516365    4.96953292447912
H        17.61084805100241    5.01654263659017    4.28543794394258
C        19.79961285421322    5.10851128788943    4.63866127955323
C        20.41226520176598    4.98598998367827    3.27458832673320
C        21.93545736075058    4.92795054825134    3.39170403061805
H        22.23524169686781    4.06693238579189    3.98270519798017
H        22.30778103648892    5.81996548341137    3.88684791665831
H        22.38644378277963    4.85416434359021    2.40459171525736
C        20.00394489361904    6.20942833264388    2.44405198670073
H        20.43240127048969    6.14444403298635    1.44629784207228
H        20.36184630744220    7.12176310892319    2.91600410791994
H        18.92190754434873    6.27075411851196    2.35250817003702
C        19.89590110245453    3.70953282305812    2.60056853685165
H        18.81513449451530    3.74085433193870    2.48531579154164
H        20.15371066578226    2.83595453377999    3.19564332164377
H        20.34357923941319    3.60035005693580    1.61520154270673
C        17.12815334281592    5.42816749599133    7.18329116346095
C        17.33775633220483    6.55384540486582    8.20178177628599
H        18.09253233005618    6.29499236300659    8.93731709764673
H        16.40746017421817    6.74902590013459    8.73064106121421
H        17.64317266785168    7.46921470219144    7.69915845389599
C        16.74641776870089    4.12549721884140    7.89934390850805
H        16.67840583314630    3.30757616956123    7.18489517226438
H        15.77775664396020    4.24317519060466    8.38009986133875
H        17.47303157630002    3.85985852520125    8.66035019476623
C        15.96150703444595    5.82701614345925    6.26817016651833
H        16.21362789246541    6.70830685486156    5.68328779467029
H        15.08494748988919    6.05436307437051    6.87062116150364
H        15.70367739104409    5.01711348882492    5.59093804914795

