141
CSD_code = FIPLEW | q = 0 | S = 0 | Stoichiometry = C54H72MoP2S6Si6 | MND = 8
Mo       -1.82518975085890    8.26849726702840    5.77844195429998
S        -3.57828748730991    7.40535701506535    4.30299644286407
S        -0.46787030051006    6.21765143082462    4.77390581450824
S        -3.41239956012246    8.81677062217718    7.61100439408414
S        -0.10906908669068    8.93538642635713    4.16607468906658
S        -3.20671678115776   10.17225625739269    4.54877294371062
S        -0.19250590817257    7.95578856396255    7.62538725010973
P        -2.36892090580701    6.08355230174549    6.66007367228832
P        -1.26928115447932   10.54780473831062    6.36649761427923
Si       -4.94324845106149    5.90477341930612    1.78364036126080
Si        2.68243442896349    5.18073997823479    5.05238003792578
Si       -4.75920926334270    9.32352277901500   10.47764478964402
Si        1.12943882944027   10.10689101349836    1.42085325189119
Si        1.19428870465810    7.80528566620057   10.51000887713735
Si       -6.36865338194678   11.18179958671540    4.79424410414070
C        -4.57895821655563    5.15571690397739    9.96889933305296
H        -4.92336155614037    4.28372842205727   10.50543722758765
C        -3.86739722700143    5.00628049073683    8.79390385097738
H        -3.65494956573354    4.02482435734492    8.39440400100134
C        -3.43689539588620    6.13968280627962    8.11240147624119
C        -6.31926415236173    7.13838489303500    2.25302447086718
H        -7.06740837296821    6.67681961842631    2.89161344252353
H        -6.82502154962401    7.50916712797742    1.36648957518187
H        -5.91120613846950    7.99136102751755    2.78424143408419
C        -3.46398396316612    6.77333087377577    0.95317689345146
H        -2.64212445357207    6.08361559467141    0.78088929584329
H        -3.09073182895003    7.57946331382842    1.57743484939898
H        -3.74495870924887    7.20136537147721   -0.00428360152343
C        -5.66609061065420    4.62070451493386    0.57281252363744
H        -6.50506493163262    4.08455119494509    1.00407134226435
H        -4.92539718677092    3.89154712689772    0.26155077311176
H        -6.02585007930309    5.11895663740990   -0.32075896817129
C         2.98823546674471    7.04315794020173    5.32539206543275
H         3.37738732115113    7.23580382494002    6.32178687025808
H         2.06356232274602    7.60630351867426    5.22301614134205
H         3.69832499138443    7.44317963044846    4.60834692425677
C         2.22449360616456    4.75265891487190    3.25280670937834
H         2.00973240271364    3.69371765022719    3.13918526797339
H         3.03939964256236    4.99880316404493    2.57850711383262
H         1.34666473439951    5.30297194448807    2.93083205458308
C         4.25984831788817    4.21587308205089    5.52005353581351
H         4.10360427030624    3.14262982129448    5.48584493999268
H         4.61216047065373    4.47243080236866    6.51368085614643
H         5.05701453066013    4.44970541824664    4.82283099943461
C        -3.08969986123281   10.22110345295410   10.70541595243918
H        -2.48612680534481    9.74975128226170   11.47613731071953
H        -3.24245533177079   11.25703854003279   10.99229228040665
H        -2.50967684952137   10.21565090171530    9.78800032928250
C        -5.97939896343165   10.27485911408771    9.36398557861544
H        -5.58101870711271   10.40612561889681    8.36383795930266
H        -6.18550365399831   11.26105149277351    9.76869651961639
H        -6.92607502499263    9.74808406354142    9.28022069792021
C        -5.56183442553466    9.14476016966926   12.19947413215392
H        -4.94185559762253    8.57580890834901   12.88436255977123
H        -6.53160504761771    8.66144241332210   12.14461089249038
H        -5.71453030103480   10.12462480225332   12.63853405684480
C         0.00990271954531   10.66804656232481    3.99167007069719
C         0.59607961486033   11.23249883450754    2.86076606807779
C         0.68051851715018   12.61904388277672    2.82160689093795
H         1.12729360088740   13.08656412205480    1.95761899348666
C         0.19337163152291   13.41874960729602    3.84396187821123
H         0.26426490758755   14.49413178117649    3.76937698179352
C        -0.40498037991369   12.84532129308176    4.95226887450459
H        -0.82785594596425   13.45856655436264    5.73615119244686
C        -0.48206250322712   11.46249737148147    5.02641573570049
C         0.17248578858933    9.47120717024375    8.41070529819303
C         0.86375994925892    9.45725363076626    9.62597786832915
C         1.24873002653115   10.68267412371700   10.15162754331651
H         1.78328248929899   10.69932637976421   11.08884941466485
C         0.25619306681846   11.88365144346364    8.32955938719076
H         0.03508677705968   12.80850885184555    7.81602382024913
C        -4.96308645914886   11.85386080307583    5.88554238915862
C        -5.16449384349098   12.77193585086704    6.91453793176499
H        -6.13197891722918   13.24230066964645    7.00214984810861
C        -4.18235501819400   13.07482832022820    7.84207996509212
H        -4.38750993296632   13.78162418281147    8.63281568319093
C        -2.94630790464847   12.44718304494394    7.79092255397386
H        -2.19821217216025   12.63432246700943    8.54724563497933
C         2.51029019721673    8.90691841605577    1.95874718624662
H         3.28975269432264    9.42017737193603    2.51519156169108
H         2.97399393790449    8.44075708389890    1.09438987307150
H         2.11681461549980    8.11841728168652    2.59125030239941
C        -0.41082170091476    9.18490878777966    0.77989864433037
H        -1.22899617921727    9.87127662038008    0.57858764601112
H        -0.76020597222849    8.46483837507265    1.51380363187642
H        -0.19738975125687    8.64381089951318   -0.13679734652070
C         1.80795002720443   11.22585596017588    0.03347374325019
H         1.06191192828217   11.92612482909189   -0.32725491994581
H         2.11807404684740   10.61939191609327   -0.81042722039903
H         2.67305524769444   11.79442058280547    0.35860263445970
C        -0.46566272336758    6.93218384088795   10.86749865459946
H        -1.05117677679803    7.47658768817267   11.60328575155384
H        -0.30117173801281    5.93006058667655   11.25163041948589
H        -1.06908621730328    6.84548411436253    9.96941244556026
C         2.01262837096772    8.19290867670718   12.18952323659810
H         1.39664429773963    8.83953525526505   12.80566966515373
H         2.98040667401923    8.66787735962545   12.06823627842632
H         2.17165309356180    7.27387736050239   12.74291412226485
C        -5.98529831168021   11.32505160260737    2.93327109729518
H        -5.78366120081655   12.35359992596251    2.64752406789799
H        -6.82508606435818   10.97587324414127    2.33980260195424
H        -5.11720035000469   10.73249602556732    2.66445815226651
C        -6.63194983216341    9.38237471705806    5.36877080558227
H        -6.96672049174656    9.34525524009553    6.40205858424546
H        -5.70423242507813    8.81803346446471    5.30779830392633
H        -7.37064182379407    8.86860478381751    4.76169546176194
C        -3.70469591483029    5.66522051758607    4.35200695648166
C        -4.32806631381832    4.96528995978342    3.32115366701009
C        -4.40808145898781    3.58460529789376    3.45748669400279
H        -4.88241634319360    3.01359870371900    2.67414876366770
C        -3.88374937575090    2.91801593563088    4.55420953959782
H        -3.95247108072331    1.84167869697962    4.61606049393136
C        -3.25487466194351    3.62478933272780    5.56431086829671
H        -2.80766089066530    3.11384691509520    6.40595663127871
C        -3.18014033256804    5.00600065863416    5.46286624774974
C         0.04671754220593    5.26949398786269    6.15374932499237
C         1.30703968061220    4.69992729088739    6.27469974337712
C         1.52787266289759    3.92490234200696    7.41167074766783
H         2.49381988165705    3.46002016131146    7.53752404339215
C         0.56706769197232    3.75670894896390    8.39411889081540
H         0.78734102395655    3.15868983602654    9.26637982358555
C        -0.66758887036906    4.37987387618224    8.28688001294179
H        -1.40126704563127    4.29717315941173    9.07534607292691
C        -0.92862408700359    5.11478466857050    7.14549374045348
C        -3.77465114589707    7.41040973877269    8.57922774997712
C        -4.44887868516781    7.57571662899610    9.79293420034549
C        -4.83151852195454    6.42518288589415   10.46830773636563
H        -5.35411019840054    6.52558668319811   11.40700908548187
C         0.98367945126112   11.88087466344863    9.50438750564222
H         1.33083382340594   12.81289969954984    9.92594903054117
C        -0.17882865350026   10.67444585249864    7.79755574534079
C        -3.69919650463534   11.28449255001981    5.80838721745169
C        -2.70365041682317   11.57094624947316    6.74953065700222
C         2.40844454311204    6.73781158241509    9.49936371316588
H         2.00023490255139    6.48937514890081    8.52564931708096
H         2.62654943060024    5.80636231731406   10.01281769787312
H         3.35006252868100    7.25724824190726    9.34369147659588
C        -7.94518965723740   12.18925035965721    5.16445501596224
H        -7.81272525830652   13.24378233098354    4.94584315462096
H        -8.25170604969941   12.09687776596570    6.20110509281085
H        -8.76486478249638   11.83130424057411    4.55104806791840

