40
CSD_code = FIPPUQ | q = 0 | S = 0 | Stoichiometry = C16H13ClN5O3STc | MND = 6
Tc       -0.75422158373849   17.18638983912227    1.41178996487303
Cl       -2.75148249915088   17.91308241148848    0.39458345640824
C         0.76898893517516   16.66619518673692    2.45726497028241
O         1.67953715038897   16.36015457437827    3.09800403083108
C        -0.62798019463898   15.58202513239409    0.34849700829441
O        -0.57264036176807   14.62966392721431   -0.28954860180543
C         0.37608184177545   18.08174472383572    0.12946238982020
O         1.03425690883847   18.62474261042953   -0.63792095102656
C        -0.97814776967229   17.57059927442395    4.55253251504267
N        -0.15041678353354   17.39007687519876    5.51605717918896
N        -0.05283858763766   16.24206001355121    6.17164396919673
C         0.93329252991449   16.03514866044785    7.10855157818720
S         0.93824521218944   14.59380728965031    7.90794775977480
N         1.77722573002580   17.05091106175365    7.30293306938641
H         1.67443039308471   17.84266802591207    6.68161468255552
C         2.89996607262950   17.00685897105150    8.19831519503121
H         2.88259040091709   17.86971806618231    8.86547194510254
H         3.83991859034299   17.00385136942115    7.64243852909780
H         2.83194346098040   16.09325667950367    8.78706054962435
N        -1.02758360443275   18.96905346713035    2.59158275384980
C        -1.00180394932863   18.90492072790277    3.92666161532367
C        -1.03890501936864   20.04118494285670    4.72992024549703
H        -0.99569033172003   19.92978483058110    5.80151575809542
C        -1.14301992414718   21.28360395941953    4.13149275894218
H        -1.17457477526049   22.18184764934963    4.72884270336558
C        -1.22147148457022   21.34238137843254    2.74799701927464
H        -1.32599873111799   22.28392104488138    2.23379326888434
C        -1.15192464943210   20.16568038782551    2.02405657112126
H        -1.20324637527511   20.17760002926236    0.94428713312652
N        -2.11568683273089   16.31853976493724    2.81299186125297
C        -2.02892410770621   16.62032565141547    4.11273085293655
C        -2.93003414203864   16.12592026242340    5.05433685713004
H        -2.84031319646505   16.41654687949704    6.09089686748546
C        -3.95328484644764   15.29297503725330    4.63689388741471
H        -4.66302710627166   14.89777079719943    5.34700829043091
C        -4.04293864089120   14.99054482143052    3.28728333750877
H        -4.82505361942348   14.35286658419370    2.90882563635187
C        -3.10917976641389   15.52605333323903    2.41796191422620
H        -3.16129301870608   15.31813976837524    1.35859167606460
H        -0.63569532441694   15.43388398994582    5.95552975187331

