26
CSD_code = FIPRUR | q = 0 | S = 0 | Stoichiometry = C5H11N5O4Zn | MND = 5
Zn        3.46233823933230    5.23284883367454    2.34092252670376
N         3.78304381861832    4.18395277550898    3.93420563359270
C         3.94075227641558    4.58945733127500    5.20975445581681
O         3.89949297816153    5.78401463699962    5.52806889467150
N         4.15018699564753    3.62873911293276    6.16054038536483
C         4.21923363176668    2.24625654603455    5.95325009457529
O         4.41088339295633    1.50527038452275    6.89476398036904
C         4.04094313436243    1.88851344059246    4.56951109958543
C         3.83551938774777    2.85542388162932    3.64405743821007
C         3.64039086487120    2.51794162323767    2.16805225033505
O         3.67441455612760    1.36159339530645    1.79991044878066
O         3.44604546821144    3.53147905947126    1.39880167656945
N         3.45993206329421    7.14662888829708    3.22537262847596
N         5.13658094010283    5.71139033183902    1.02349890802898
N         1.39248592256493    5.40447735771364    1.66806377318823
H         4.26652088780725    3.95319796667129    7.11369403613283
H         4.07221269610239    0.85222529331171    4.28002155389762
H         4.20885774946505    7.79634498887993    3.01813701455166
H         3.63036665067699    6.79743894647740    4.19493200954429
H         2.59945827857414    7.67992567762217    3.25990373661395
H         5.09600427894826    4.85583961305361    0.47406398506036
H         6.03772365916962    5.72263223754965    1.49078566989975
H         5.10662063068244    6.49334320252048    0.37874158744015
H         0.71957921653501    5.26137165076306    2.41477902979160
H         1.06667630147675    6.17459096402544    1.09427445728803
H         1.38283598038217    4.56420186008825    1.09419272551330

