37
CSD_code = FIPTAZ | q = 0 | S = 0 | Stoichiometry = C16H16I2O2Zn | MND = 4
Zn        4.63570405624495    4.27897790222472    3.46810381201488
I         5.08054889582262    2.67003163830552    1.60645453761295
I         5.16168469976707    5.35753180289639    5.65904036740915
O         2.56759552531639    4.03345756888651    3.55381654975727
C         1.62280877454204    3.95396437292862    2.77858569411481
C         0.92240160742843    5.16957170899617    2.32916869924238
C         0.12026278210532    5.19095948769158    1.18729916875678
H         0.00146083122454    4.30240012545557    0.58696734643898
C        -0.50464403976905    6.36238533343280    0.80450398980497
H        -1.12118560738996    6.37420737562224   -0.08204991894711
C        -0.34658364105588    7.51798202559563    1.55429465212511
H        -0.84601119870445    8.42747324758329    1.25550109037338
C         0.45412992866692    7.50829787052245    2.68547576836956
H         0.58362220432949    8.40913291946532    3.26618515425071
C         1.08867409214519    6.34380725166257    3.06816390482932
H         1.70774024659167    6.32260975028030    3.95285925922323
C         1.16987289874751    2.62335997508476    2.26484729751559
H         1.54446251772160    1.83259503488255    2.91184282982020
H         1.60483352977923    2.47071806288691    1.27529374424322
H         0.08823210808682    2.56528290191622    2.18758458380144
O         4.35551735150159    6.10187481964888    2.29285053102629
C         4.76642614853668    7.25315641243076    2.24745695343276
C         3.92006572704457    8.32279418309785    1.68650006405772
C         4.01821233752081    9.64402339969862    2.12402958848798
H         4.70756492579219    9.90583997836760    2.91161005611516
C         3.20343499856697   10.61461711488227    1.57395594930227
H         3.27233371717022   11.63338188940633    1.92461885042830
C         2.30640689936125   10.28650586947255    0.56856343054918
H         1.68566347011027   11.05385412190497    0.13080878490480
C         2.20659870917937    8.97720087585622    0.12686371442671
H         1.51148507441207    8.72019226332919   -0.65773716529158
C         2.99662693091375    7.99593711402517    0.69324118216727
H         2.92705260853844    6.97104029616941    0.36046173140771
C         6.12688338641968    7.63122156112404    2.74022081444382
H         6.04248400493868    7.95986073513091    3.77810134442278
H         6.55560843435077    8.43636240130952    2.15054896993866
H         6.78652506405593    6.76489060781749    2.72446666943271

