65
CSD_code = FIPVUX | q = 0 | S = 0 | Stoichiometry = C20H30N12NiS2 | MND = 6
H         0.34070444644568    5.82488499821388   11.44805995676098
H         1.41279740835974    5.10788582823378   10.41584009144540
Ni       -1.86855271789517    4.60685546467781    6.28187052989498
S         0.49333366737961    3.47286909234872    8.83507360663980
N        -1.12711807396750    5.38710826459373    7.72588420148153
N        -1.45250392377139    6.65735492439636    7.98246979842779
N        -0.03443638215134    6.01111384738519    9.50419597801041
N        -1.31810115245944    6.30734633776351    5.05317433055770
H        -2.13212113735523    6.53831230428101    4.47863420915861
H        -1.12530119223067    7.10407133785337    5.65720608918503
N         0.85198983035991    5.95411259691104   10.57280184319827
C        -0.79642161122981    7.05580999374623    9.04551704766905
C        -0.90046896687879    8.38214398080165    9.61452563546035
N         0.13125826000397    3.99875959338559    5.62395199853084
H         0.61767500230417    3.62323691596822    6.44022212970638
H         0.05248938749288    3.25298417260878    4.93598874100103
C        -0.02558588513692    8.84172895540225   10.59845518574221
H         0.76988353775187    8.20363710592818   10.94996806676349
C        -0.26332308992728    4.95834403827205    8.64584004978334
C        -2.03688499016696   10.50535582396031    9.65454110415144
H        -2.81768129547188   11.15429489516802    9.28576680899499
C        -1.90496995361296    9.23113540321842    9.14252414651685
H        -2.56792175482569    8.86904443866132    8.37216833957538
C        -0.16647438323065   10.12064544143634   11.10449523702706
H         0.51549361724006   10.46999727975462   11.86593372092539
C        -1.17128806849784   10.95340805666750   10.64102673755684
H        -1.27757207878972   11.95009214805970   11.04297582042690
C        -0.15778169762773    5.98257733099717    4.23211127569392
H         0.35105063789362    6.87635862628801    3.84715226448568
H        -0.49165839272954    5.38175068980779    3.38152384314204
C         0.83167144550139    5.14994186251319    5.06640611870768
H         1.68694575857106    4.86344303500995    4.43959616611828
H         1.19940628221617    5.76577487179704    5.89167158532491
H        -4.07789715988068    3.38970831443785    1.11556663026506
H        -5.15055684883809    4.10578738856691    2.14829406334532
S        -4.23054012054998    5.74095348887912    3.72889981893851
N        -2.60995950275905    3.82666614513317    4.83780449816127
N        -2.28455503054391    2.55644510714825    4.58108197752249
N        -3.70268133825374    3.20281081107398    3.05946757498749
N        -2.41891587328519    2.90629423352648    7.51050199173106
H        -1.60486910462448    2.67538581338836    8.08503171109033
H        -2.61167054252689    2.10957245721572    6.90645509530352
N        -4.58919850773669    3.25984607963251    1.99093094639180
C        -2.94066748936161    2.15807332656146    3.51802856065939
C        -2.83659640936784    0.83178848456457    2.94889914121275
N        -3.86835267108734    5.21485598836902    6.93987206680796
H        -4.35477876471878    5.59040144566717    6.12361065092737
H        -3.78962198699667    5.96060741428218    7.62786567530743
C        -3.71136496671923    0.37233117553116    1.96483843552861
H        -4.50671428529555    1.01052083438674    1.61324861300392
C        -3.47373313104341    4.25552896339463    3.91787616172659
C        -1.70025407126976   -1.29147969556952    2.90883692097156
H        -0.91950574871144   -1.94047696004861    3.27762527261640
C        -1.83212697034534   -0.01726756605875    3.42089079776136
H        -1.16918280845538    0.34476401166453    4.19128705944249
C        -3.57051949315704   -0.90657550619966    1.45876524868080
H        -4.25247285946545   -1.25586435538771    0.69727751192445
C        -2.56582025785194   -1.73943884088820    1.92229281705195
H        -2.45956908917577   -2.73611405342603    1.52031732360001
C        -3.57923580462221    3.23097309476521    8.33159761947268
H        -4.08802558511471    2.33714897190302    8.71651137612069
H        -3.24536582451852    3.83176340756413    9.18221264238863
C        -4.56872645120033    4.06362378850073    7.49736360737057
H        -5.42399773258338    4.35006064799824    8.12420638597977
H        -4.93645610350196    3.44782592730899    6.67206914564705

