26
CSD_code = FIPWAC | q = 0 | S = 0 | Stoichiometry = C12H9BrMoO3 | MND = 8
Mo        6.70272141798533    2.50986776122177   18.76251245323103
C         3.73443631983450    1.75740668872743   19.03742275989512
C         4.97516328528235    1.02639295489983   18.65539283857395
C         5.48552157881618    1.06027297588297   17.37367989998444
C         4.84123093026428    1.84593602231214   16.31030726701399
C         3.74658408804308    2.50956197761001   20.33501234897508
Br        5.44488262801625    2.50969981041998   21.26317469652010
C         7.57855870844695    2.50988020107326   17.04625757471135
O         8.06744442547726    2.50972526502745   16.01609147784670
C         7.94468432818520    1.16123381710083   19.39471521360049
O         8.71471730576674    0.39796366058319   19.74696991474395
H         2.80758937077088    1.24254161984965   18.79112404153279
H         5.16189443816016    0.13532420158699   19.26095286340360
H         6.06745522483994    0.20629369567975   17.03328235191160
H         4.39197519803194    1.28021021784449   15.50363996373461
H         2.90725992410542    2.50962188819726   21.01421777109674
C         4.97504738227956    3.99258654673615   18.65527747407348
C         5.48538450736080    3.95871582871390   17.37356071764479
C         7.94489563534464    3.85817455742637   19.39490884502216
C         3.73435164785050    3.26160104643160   19.03737368152313
C         4.84117667462856    3.17294447569956   16.31023493786019
H         5.16221861258219    4.88304342794972   19.26097871701937
H         6.06756541449357    4.81231866651060   17.03328646789880
O         8.71532570835362    4.62072633178037   19.74772999650558
H         2.80744374789887    3.77641210189343   18.79108324177187
H         4.39207149718124    3.73854425884143   15.50341248390513

