56
CSD_code = FIPXAE | q = 1 | S = 0 | Stoichiometry = C20H25ClHgNO6S2(1+) | MND = 6
Hg        3.76764558982343    6.75156578429153   11.45296148086395
Cl        2.51051546931878    9.47709277395171   11.80856475651272
S         3.43023328072154    5.82477190073153    9.04016644621925
S         2.84147021668787    5.79869833559018   13.63628495470935
O         5.63755671652259    8.23785318448349   10.34993277219423
O         5.88799024783237    7.34575247699783   13.05616831184051
O         1.20731827915935    9.81443046140000   12.14394386674767
O         3.31587818568807   10.57112875340482   11.46298506271392
O         3.15063006910274    8.75718511352665   12.89629182664210
O         2.51339908243485    8.51476833177367   10.70332437747058
N         4.74335224915164    4.30298711559584   11.55208041027127
H         5.70848722572063    4.29640081733688   11.22725719095894
C         6.90059669320727    8.06219476310286   12.36150322057368
H         7.54469977168438    7.36518232842626   11.80744780121416
H         7.50242029515231    8.63716125972906   13.07365317708067
C         6.24935678364309    9.02118335034167   11.37297201772547
H         5.50472237289569    9.64194062401036   11.88325096269716
H         7.02550220394604    9.65615850153012   10.93147125958318
C         5.13368330620532    8.91207723841006    9.24287733521826
C         5.03530383621027   10.29203368225296    9.15479508390248
H         5.32703070930683   10.92570772394826    9.97356224440881
C         4.49213516691436   10.87268931582578    8.02046244619750
H         4.40451512530413   11.94632785437675    7.97480405098738
C         4.05596288060565   10.09172285836327    6.96565000060079
H         3.62451712113657   10.54829629206597    6.08952672727145
C         4.17714647103691    8.71733360901680    7.04210001379303
H         3.84892980264417    8.09792124081156    6.22096877306339
C         4.72625513278593    8.11188104820211    8.16539670820266
C         4.88547547716772    6.63012639212625    8.20910562700793
H         5.77677933717953    6.34014080044571    8.76405818570795
H         4.90286509897313    6.21188291580930    7.20327561027287
C         4.06959115168904    4.09353589484520    9.19216225469419
H         3.47771132113977    3.49464291396019    8.50164952136664
H         5.10802030451520    4.09658752658629    8.86389459410121
C         3.94111011161039    3.53146497808717   10.59939989361330
H         2.89447209813742    3.56397774377938   10.91238873922964
H         4.26088865525200    2.47956658925784   10.57743290685150
C         4.72755218823044    3.76470511785654   12.91145910061968
H         5.57045186561303    4.19719186571387   13.45227956333619
H         4.85122055342775    2.67221293829973   12.90105324656588
C         3.43593893826977    4.05964878559537   13.67473175875272
H         3.56768632908196    3.79282462651052   14.72156265978443
H         2.60020752005802    3.48898517141046   13.27199244362675
C         3.86806360028723    6.64857256316244   14.91199700094863
H         3.80477762900400    7.69520855977590   14.61205877942044
H         3.32503401642165    6.49387438288868   15.84386925430732
C         5.27622086563021    6.18408288298229   15.03960274900717
C         5.62697213890579    5.37400384930420   16.11454400983406
H         4.86211127767288    5.07712012744839   16.81636033855078
C         6.93454302893611    4.97139826165290   16.31892205945437
H         7.18514496650718    4.35301092123555   17.16521317717017
C         7.91548207337583    5.38509397194402   15.43736567684088
H         8.94226215453587    5.09210864197294   15.58818554540348
C         7.59149686116976    6.18513624967854   14.35325260039122
H         8.37832221240491    6.49334999838516   13.68489471689221
C         6.27734393988464    6.58569858996606   14.13768470644401

