45
CSD_code = FIPYEJ | q = 0 | S = 0 | Stoichiometry = C17H22P2PtSe3 | MND = 4
Pt       10.03043131751635    7.65780731027530   10.65990039439362
Se        8.87650793418720    6.65019835686843   12.55143207838429
Se       11.45282512753733    8.25266399332394   12.54373217819717
C        10.25929022312373    7.30475038937122   13.65379564430521
Se       10.41154038002686    7.06740784620201   15.40457016972039
P         8.38563160443770    7.08408349233230    9.11439756704367
C         6.91775597013046    6.18404369008828    9.72772779426690
H         6.14762603137998    6.13907141962448    8.95776698168999
H         6.53230963655806    6.69948335173724   10.60796342354211
H         7.21738879322787    5.17786492182656   10.02144578855291
C         8.76083657229523    6.15729326400516    7.57739661317540
H         7.85758414434820    6.00116688479494    6.98992940179241
H         9.17281542329856    5.18917918203082    7.86093527627403
H         9.50537138915766    6.68882207615162    6.98703406087377
P        11.47843653532274    8.53905440239270    9.05644623424407
C        12.97584673271443    9.41195736509541    9.63757659718452
H        13.66036295637830    9.58956600630094    8.80822381432506
H        13.46573502160883    8.80285570829227   10.39795284946713
H        12.67964533748207   10.35791662678859   10.09098231568347
C        10.92376588543922    9.64846643644855    7.70490656318821
H        11.76012732941037    9.92224411311318    7.06402406788389
H        10.51006684969016   10.55023939206090    8.15526342619538
H        10.14367753613771    9.16842745887315    7.11659825127965
C         7.66490198453659    8.66550717384485    8.58215799363005
C         7.84643356684353    9.73649880383953    9.45365641521065
H         8.41259451088822    9.57709310545392   10.37413938237459
C         7.31910253399805   10.97866958102023    9.15717607971424
H         7.46026631815872   11.80434952469379    9.83837914745350
C         6.61003492802991   11.15995268863647    7.98004603970059
H         6.19887316533896   12.12925946770368    7.74099324360159
C         6.42699236366709   10.09865408965827    7.10858128000007
H         5.87252138364571   10.24240067423140    6.19277139868892
C         6.94855377750518    8.85174609340092    7.40670595015275
H         6.79743534965757    8.02999491763334    6.72169989098609
C        12.18291828065987    7.07832594910112    8.23441555617775
C        12.82255504545691    7.10317585979701    7.00130604849873
H        12.91250807978962    8.02809296503058    6.45006529135555
C        13.34720290872530    5.93633068504187    6.47368622614543
H        13.84246453379676    5.95756541396891    5.51395799051879
C        13.24364005638586    4.74434514975985    7.17227186010473
H        13.65770432455083    3.83861389946385    6.75519796330941
C        12.61118242504261    4.71411507559831    8.40507432455805
H        12.53278893048834    3.78689752108755    8.95255465134758
C        12.08110929212509    5.87673436772476    8.93086962868264
H        11.57763750930151    5.86881330530788    9.90079214612694

