46
CSD_code = FIPYEI | q = 0 | S = 0 | Stoichiometry = C14H25FeN2O3P | MND = 5
Fe       -0.23233685858762   -1.40804366083788   16.49646263996581
P        -1.19644238492008    0.18676320380188   17.57726809214910
N         1.87303202939584   -3.50980206924814   16.00483344785857
N         0.85386525929316   -3.00573303650197   14.17010270303403
O        -2.66132568133349   -1.70202870757203   14.86074853834044
O        -0.45432891376416   -3.13372026818230   18.86708471012837
O         2.00812782665588    0.35831271403170   15.85454142316306
C         0.90561805591800   -2.73243884775822   15.48590953349278
C        -1.66976608023012   -1.59394515518360   15.45172152691979
C        -0.33437822021339   -2.45895782800487   17.93168696176846
C         1.10167160414232   -0.31630592850934   16.13097186673217
C         2.48322199429941   -4.41620152218726   15.04413132283602
C         1.75777419925541   -4.06564608740928   13.74958441340861
C         2.41047868254502   -3.50634362228815   17.33488379105700
C         0.07403512982343   -2.36322172195033   13.15182747776100
C        -0.60986447208903    0.57369409456246   19.29367658597129
C         0.90009653356750    0.73189064224393   19.38788405849137
C        -3.01443206255331    0.07824309818839   17.91922736972543
C        -3.43692419443377   -1.25507743188409   18.51812531478474
C        -1.14491422913483    1.89574840005798   16.86251412322746
C        -1.56194554505297    1.93860814817889   15.39996125530791
H         3.56283575310299   -4.23670314974680   14.98723558103516
H         2.32430870530333   -5.45559919426367   15.35169340527001
H         1.18830464276375   -4.90804964042512   13.34148892189823
H         2.43467446685725   -3.69922774738351   12.96974483376535
H         2.12028785784397   -2.58700035080926   17.84036469389622
H         3.50070762679531   -3.55506304330491   17.28239195789411
H         2.04783817325655   -4.36120339166900   17.91289535017674
H        -0.25462453317405   -1.38843126558881   13.50779980326866
H        -0.80287285334423   -2.95972476710647   12.88392954833038
H         0.69083132948757   -2.22689752842404   12.26085902915252
H        -0.92806215906591   -0.26267403352436   19.92557858684321
H        -1.11890546598900    1.48144191295676   19.63720231995263
H         1.20456041924082    0.88543152964980   20.42188772057149
H         1.24479920858470    1.57965017911119   18.79944902079002
H         1.38980638892656   -0.16472201889690   19.00901129345162
H        -3.52219155615804    0.22181716451411   16.95934628621308
H        -3.28882636315621    0.90673817687113   18.58270562096245
H        -4.51595304072189   -1.28128533479706   18.66231548335236
H        -2.95888459149316   -1.42466519111884   19.48085778072413
H        -3.15702246354692   -2.06939272292599   17.85172247688857
H        -0.11087275932493    2.24386591908222   16.95582617793614
H        -1.78608046053945    2.54413348482147   17.47066486522846
H        -1.47658795221262    2.95074976877355   15.00795297535112
H        -2.59080339554753    1.60730827355892   15.27392456735175
H        -0.91932965046808    1.28210855709845   14.81430454357152

