23
CSD_code = FIPZEJ | q = 0 | S = 0 | Stoichiometry = C4H12Br2O2S2Zn | MND = 4
Zn        1.91400816232562    4.51873747101637    2.86576985211907
Br       -0.01496552903314    5.18592339696287    4.03162239302197
O         1.35435725895223    3.19202991729485    1.47280619760488
S         2.40418137553321    2.71138249808542    0.51712842542267
C         2.09574196434396    3.65627974231200   -1.01205348774199
H         2.58471521165968    3.14838703838885   -1.83464793225112
H         2.52624709252971    4.64519755333980   -0.88994309688434
H         1.02539318856896    3.72719273821613   -1.17228991572254
C         1.66122285122077    1.14888831508407   -0.08641344359648
H         2.26781048443172    0.76339758297690   -0.89735774565479
H         0.64383649300677    1.33251866194236   -0.41156548047236
H         1.66024008733939    0.44560057161697    0.73965661090045
Br        3.84278558890768    5.18608960043838    1.69988262473093
O         2.47387874905237    3.19197073155762    4.25858775235807
S         1.42422999961649    2.71132418168922    5.21447109609799
C         1.73236901692570    3.65659052514731    6.74346518179215
H         1.24339497108454    3.14868732455438    7.56604597305785
H         1.30195170874407    4.64555737583881    6.62135961958533
H         2.80273496219431    3.72731414535113    6.90357506295322
C         2.16688580392065    1.14858448365953    5.81765085288314
H         1.56037291048428    0.76328602413537    6.62875447748381
H         3.18427833667111    1.33234901314163    6.14266184791712
H         2.16772931152282    0.44521110724605    4.99163313439474

