45
CSD_code = FIQCUF | q = -1 | S = 0 | Stoichiometry = C21H19NiS4(1-) | MND = 4
Ni       -6.20095731415242   15.93528957105045    3.81941464917680
S        -4.35672419929032   16.71339684872748    4.75973367275815
S        -6.20019658009599   14.07049469018608    5.21935426434760
S        -7.81965788876692   14.79674481377744    2.69739445166873
S        -6.34943298601663   17.71921369853139    2.53137233347737
C        -3.91737551937564   15.47641570886374    5.87974810139910
C        -2.72484435953729   15.61401276225845    6.60441308144911
H        -2.11764693681065   16.48758733999257    6.41770193214896
C        -2.34393392080511   14.67498760075377    7.53507677108375
H        -1.42033352032502   14.80957534627708    8.08250872739384
C        -3.13554680274348   13.55876696025585    7.78117942190553
H        -2.83660281036165   12.82371049647288    8.51487218357386
C        -4.30945163067006   13.39439188528183    7.06956741099451
H        -4.94212795150780   12.53285647404697    7.23403608564924
C        -4.68929786372614   14.33208773653314    6.12557525976194
C        -5.51714553609524   13.64815141309811    3.60250573558718
C        -4.32662861633527   12.95880923577586    3.47299202125634
H        -3.72975014407640   12.74145793412372    4.34922877993441
C        -3.90170349311612   12.55644689115851    2.21501807089906
H        -2.96665710478626   12.02309962937419    2.11568805213046
C        -4.67718070297933   12.83005425353796    1.09954331996274
H        -4.34509765043449   12.50900529329768    0.12134523426923
C        -5.86995820095762   13.51695349666291    1.22292274249568
H        -6.47408805945192   13.74847781487403    0.35807508911808
C        -6.31421586171042   13.94484110746571    2.47433892291270
C        -6.35398282656453   19.05322356026373    3.66809826251951
C        -7.20139437067914   19.04312340292313    4.78607521461782
C        -7.21158208530266   20.13593592562194    5.63416507787283
H        -7.85955124246290   20.12423233071058    6.50153494726570
C        -6.41753602994447   21.25041110000506    5.39696781018727
C        -5.58972724420161   21.24585537356927    4.28475623661827
H        -4.95792043268350   22.10360064709142    4.08930511723629
C        -5.54142410077915   20.16515806876231    3.41955832266198
C        -8.06323237372986   17.85159208842577    5.05926686494748
H        -8.60091229398973   17.95053813303044    5.99902373613067
H        -7.42261614624660   16.92699077500817    5.11249636337851
H        -8.77228214794748   17.70203877855893    4.24191573514296
C        -6.45429687313525   22.42052968813008    6.33862581673946
H        -7.48100260848705   22.74367721625935    6.51084486551985
H        -5.88797913010273   23.25890097729969    5.93816576042207
H        -6.02523021659305   22.14574504611679    7.30316374307758
C        -4.63082708680736   20.17061826292894    2.23243981961980
H        -4.05997662011881   19.24366976904209    2.21367063968114
H        -3.94998400833869   21.01904027924412    2.26257542629607
H        -5.21218650775611   20.20938957461950    1.31184392469377

