25
CSD_code = FIQGAP | q = 0 | S = 0 | Stoichiometry = C10H11BrO2Ru | MND = 8
Ru        7.67210833079341    1.30304107681060    2.55820145088607
Br        6.79160096892277   -0.32588940905928    0.86803546784687
O         9.06958013403907   -0.79801897363100    4.17326299466489
O        10.17403665733624    1.88070540732328    1.01441226045701
C         8.54336335257037   -0.02314297333885    3.51806557648134
C         9.22028327902042    1.61644936605741    1.58638849466044
C         7.01430571439512    2.48442675533861    4.33958825859078
C         7.41464074636245    3.39202796591187    3.30501543490758
C         6.52743471700920    3.20212262060243    2.19693170652078
H         6.45498210242826    3.85931776368035    1.33902332858126
C         5.55988986226083    2.22558739006940    2.55614493032631
C         5.89225058820427    1.74255361253499    3.85312448634647
H         5.25447273400736    1.11063651602728    4.45902329041530
C         7.51088013111790    2.49439512763163    5.75190730789497
H         7.25663786361721    1.56710904667964    6.26148124269495
H         8.58979884393290    2.63288533059113    5.79594073211122
H         7.04265639917628    3.32171627453145    6.28960366950342
C         8.39546265680223    4.51287072808552    3.45689585490538
H         8.71105636506542    4.88926733234013    2.48587459575357
H         9.27717530333933    4.19996028055247    4.01355154690626
H         7.92291536613164    5.33047535546109    4.00559510388707
C         4.33327423944084    1.87886273992123    1.77983846662477
H         4.50670925137329    1.96194583428181    0.70862672600638
H         3.53485422896624    2.57095682308677    2.05676674362129
H         4.00333016368530    0.86463800851015    1.99590032940679

