45
CSD_code = FIQGOD | q = 0 | S = 0 | Stoichiometry = C16H26Br2Ru | MND = 10
Ru        3.22217478783790    5.20041493230429    1.90255797294449
Br        4.38253561019937    6.38365808938895    3.81558733878685
Br        1.48523672555115    4.82325851606642    3.69577535600347
C         3.65874712612596    7.10520076059109    0.87542216502697
H         3.79941932101189    6.86600843142593   -0.17695579423374
H         4.38246638554765    7.80888250399975    1.27332081679171
C         2.34601559028690    7.11680914184232    1.38098543002295
H         2.04468698604782    7.76977075876143    2.20517169343882
C         1.49073906695158    6.12831531693071    0.86374041293787
H         1.57968505121542    5.86350648892140   -0.18651316367524
H         0.48223009613798    6.05431246758364    1.25580952128050
C         2.96196167108014    3.07556033097407    1.18721125220473
C         3.95815694900756    3.12764606048953    2.21950613786961
H         3.92547832458286    2.55475792637740    3.13754962939388
C         5.11000759070944    3.82718394233292    1.74050016958070
C         4.76575007414530    4.32957737290231    0.46061597410664
H         5.43682588272451    4.84037583757121   -0.21386261281114
C         3.46464916393783    3.87033234480518    0.12049333318911
H         3.01813250050038    3.96659328434329   -0.85953134169171
C         1.81377236259062    2.09712645657457    1.08369943186967
C         0.51411521884417    2.78874526615092    0.66030128191920
H        -0.26379917594701    2.04424153045408    0.51048956371180
H         0.64073139339771    3.33766508192660   -0.27034315221900
H         0.18220201181972    3.47297407776643    1.43654083698343
C         1.58165430594111    1.35484651989318    2.40232866467350
H         2.45283027942730    0.76312061424260    2.67600983153851
H         0.73733427830045    0.67893922738292    2.29207568733746
H         1.35344787875151    2.04836535847583    3.20704854711678
C         2.22219523207615    1.07591459607832    0.00528249418664
H         3.17406662307949    0.61109660783994    0.25613647262367
H         2.31646428488823    1.54817672717976   -0.97018546504709
H         1.46681370213645    0.29710242773618   -0.06290530232720
C         6.50716381097360    3.74674544272581    2.30661075058712
C         7.30025301393601    5.03501611839124    2.06943219903161
H         7.35907431923077    5.27740093690770    1.01065703652767
H         8.31368799081172    4.91146210045016    2.44240478054703
H         6.84489466329289    5.86742722697584    2.59832812619009
C         6.50713360765210    3.40949588908322    3.79965221061270
H         5.94942301798426    4.14863961849767    4.36742811357330
H         7.52918921559881    3.40377179903365    4.16948394573615
H         6.07880759912530    2.42612301319941    3.98152475739976
C         7.17575952933653    2.59151368056372    1.53406863728670
H         8.18578648102345    2.44393067050684    1.90767922374696
H         7.22909523024462    2.81218126494033    0.46970939321022
H         6.62000422188194    1.66491323941105    1.66665764201695

