40
CSD_code = FIQGET | q = 0 | S = 0 | Stoichiometry = C15H21BrO2Ru | MND = 8
Ru       10.36690448270276    1.95959904707993    8.38938583199326
Br       10.83144384204730    4.41818195596497    8.30146396315520
C        12.04735734745553    1.57634706110333    9.06513687139142
C        11.07279816973060    1.73859966957766    6.69018801762884
O        13.05744320163381    1.29621986002001    9.52173141373086
O        11.50550586254904    1.56995282281548    5.64493351797289
C         8.22630295272628    1.28299188745288    7.94610676719078
C         8.18195172995149    2.40077562586760    8.80652181932026
H         7.62634944271819    3.30999701338519    8.62052406802906
C         8.82149799353255    2.08104795868531   10.05721450016336
C         9.26748183353256    0.74697651408281    9.94685357501391
H         9.68570374834234    0.14211328542447   10.74112183045301
C         8.95807151622031    0.26262826836249    8.63733925722373
H         9.05175691420084   -0.76942217539052    8.32921919135428
C         7.46565089617649    1.14100680134950    6.64551465155470
C         7.55231121968633    2.43640334332905    5.82962459532885
H         7.07512904478519    3.26481661388590    6.34757788652912
H         7.05372824872594    2.30816660871178    4.87179358506776
H         8.59327905585368    2.70323845530990    5.64081405519661
C         8.01321558934204   -0.01881462455568    5.80787405068646
H         7.49232875990110   -0.06152041741149    4.85431322536424
H         9.07580121162358    0.11287018965127    5.60911172804801
H         7.86757023963890   -0.97173255775766    6.31170616278851
C         5.99866862025903    0.85565304938121    7.00711384174174
H         5.41110933495700    0.72877321522476    6.10122689556348
H         5.92064989765994   -0.05371312231602    7.60001940338457
H         5.57550497686206    1.67719893420212    7.58112844923390
C         8.76548517688446    2.88044585267670   11.34398353658112
C         8.22231418214838    4.29195797418532   11.10479350000877
H         7.19412835246960    4.25999496225596   10.74939194505385
H         8.83327559245526    4.83070011246775   10.38423064020726
H         8.23643193313984    4.84892742337440   12.03845242898059
C        10.16592500226578    2.98155616110285   11.96193247064875
H        10.12007742281831    3.52747021374136   12.90116743334867
H        10.58295030230636    1.99602694130306   12.16285100603193
H        10.83854431688802    3.51749652043146   11.29241624931985
C         7.82640125423895    2.13704197083107   12.30828613817591
H         7.71836188322975    2.70605022290578   13.22841274664218
H         8.21763692704446    1.15306776835475   12.55757106086258
H         6.84095152129653    2.01250859293283   11.86275168903046

