57
CSD_code = FIQGIX | q = 0 | S = 0 | Stoichiometry = C20H34Br2Ru | MND = 10
Ru        3.53645048413063    5.22859920184802    4.25473856407654
Br        3.82173502005417    6.02457549720811    6.64246834782332
Br        5.40501414830212    3.64523078764095    4.90879894781107
C         1.46767968670806    4.88945839554289    5.02508833322036
H         0.80052915590574    5.15702937867411    4.21334265907895
H         1.15048072052408    5.24197677235920    6.00063457343474
C         2.16668879610118    3.67763579822689    4.92974946370736
H         2.45994013835010    3.10503814754609    5.81400512084905
C         2.59501253123239    3.32562623979554    3.63634822921218
H         3.16393319988500    2.41079904930250    3.50827704752834
H         1.94040049214268    3.56121618326488    2.80003409113797
C         4.71973947502494    5.84282869338545    2.40400458736669
C         4.85954207807365    6.85221752722960    3.44915511538554
C         3.53523446200736    7.37708670690198    3.67062171002824
H         3.30991776656283    8.20603780158441    4.32294141975057
C         2.60600288364260    6.80309801147919    2.77458651251329
C         3.33198256295359    5.81997092320484    2.05944704040797
H         2.92530002552314    5.25884766495229    1.23288544559742
C         5.67031195159582    5.10270634260537    1.46013890694956
C         7.10623350788401    4.87206501655097    1.93524851087162
H         7.64691132294156    5.79416686765495    2.10930294942620
H         7.64198050054258    4.32396074391060    1.16250516987204
H         7.12004141216768    4.26603545274325    2.83600209729275
C         5.12115581850918    3.70276456401958    1.13008860943220
H         4.14900277895015    3.72659322039245    0.64598043401311
H         5.05460954055397    3.10393743084853    2.03434124409635
H         5.80761485685543    3.20353379002968    0.45063478136598
C         5.69718516991681    5.93747901210717    0.16394036143901
H         4.70564256458570    6.00923759526369   -0.27868448870990
H         6.35928716341644    5.46559899444285   -0.55807773454531
H         6.05676776621879    6.94571550538395    0.35187722888739
C         6.06835384886885    7.62335164378411    3.98609257124819
C         5.63557867064563    8.74741375329427    4.94537092853844
H         5.05478477372485    9.51343217633213    4.43411762459695
H         6.53003010885002    9.22282408302788    5.34102758049782
H         5.07254061594835    8.36368700717074    5.79110358773552
C         7.05961901096019    6.75351550625750    4.76626025223172
H         7.94722055200559    7.33696085857792    5.00025685806095
H         7.36508013751899    5.86972963742828    4.22351735737501
H         6.61143121109578    6.43526251294687    5.70464885136828
C         6.74768397825115    8.32529367643232    2.79668773179047
H         6.01761514022503    8.90755444131415    2.23502572288939
H         7.22721838664228    7.62907330785639    2.11913375394261
H         7.50942010798612    9.00477991018241    3.17191835134576
C         1.28240054065968    7.41147797065653    2.37425229294404
C         0.57532890758614    8.08627154477793    3.55446031438482
H        -0.39189591071265    8.46634659492474    3.23355631999216
H         1.15669264298156    8.92566344764584    3.92765666182881
H         0.41373026915445    7.39397765222896    4.37629953420740
C         0.34107857774039    6.40528668258714    1.70314572329632
H        -0.56457738936714    6.91471102018773    1.38180337935179
H         0.04751037939566    5.60612201285397    2.38016866074998
H         0.80139016957643    5.96065772614567    0.82347160812977
C         1.64976590195424    8.49185065414519    1.33704115390365
H         0.75039363647048    9.00429795423456    1.00415177591873
H         2.13544165948891    8.04663762873423    0.47080366977172
H         2.32613609108466    9.22635328018018    1.76890245457648

