39
CSD_code = FIQJIZ | q = 0 | S = 0 | Stoichiometry = C14H12CdN2O10 | MND = 6
Cd       -0.72566381117722    3.91121595702489    3.81958675774218
N        -0.84670374735657    3.57858511381589    5.98688582513781
O         1.06562892612332    2.87598073512342    4.18317984035452
O         2.13117730253578    1.69833963213197    5.74434304707226
O        -3.88803668594222    4.49064396887653    8.67637910226688
O        -3.24339862537212    2.81148327811925    9.99799554275742
H        -4.00418002967389    3.09101891755619   10.53139764512290
C         0.03280071381174    2.63205127911041    6.32254755845499
C        -0.04423384320386    1.93072058009025    7.52119395644959
H         0.70980690297448    1.18767829283541    7.73010854898782
C        -1.07988662569314    2.20568186216961    8.39318759373985
H        -1.18794522478800    1.67640920246726    9.32752706486380
C        -1.99385213949287    3.19863933080995    8.04055918810609
C        -1.83300896354137    3.85881388242376    6.82415179199033
H        -2.52706233488055    4.64066070702958    6.53825096679974
C         1.19312284407445    2.35373697212252    5.33447110123278
C        -3.13456337002387    3.58179590798520    8.91094990178303
O         0.94547282364745    5.62158995312548    3.68997235680320
H         1.11286620912849    6.12200517637585    4.49636994292141
H         1.58224200638398    4.88887218668883    3.69183480902147
N        -0.61013615501771    3.57215368123806    1.65296188960438
O        -2.51554994373972    2.86952397627644    3.46459272697276
O        -3.59046591015864    1.69635613239935    1.90665717270472
O         2.41616820886723    4.48755600310426   -1.05234321909970
O         1.75452490002735    2.81990246467405   -2.38009797910355
H         2.51186230384361    3.10042443058585   -2.91786218793159
C        -1.49444141811053    2.62953304325318    1.31907211116095
C        -1.42691107633871    1.93300847432495    0.11707815417260
H        -2.18394117851453    1.19224270548636   -0.08985871638821
C        -0.39689595461612    2.20976817580079   -0.76100020249244
H        -0.29674911797047    1.68458588561016   -1.69856289779048
C         0.52218331705022    3.19853499889492   -0.41009561231462
C         0.37173243911212    3.85303629820914    0.81072092035598
H         1.06994446452903    4.63167899005682    1.09569815631962
C        -2.64990828423285    2.35037422885302    2.31279633760091
C         1.65735576964887    3.58320746019527   -1.28701845967211
O        -2.40115113868589    5.61796151629158    3.94052723819174
H        -2.57178430828176    6.11334221732969    3.13183919945698
H        -3.03421924494016    4.88198638153063    3.94400282663712

