55
CSD_code = FIQJOF | q = 0 | S = 0 | Stoichiometry = C15H31BBr2IrO2P3 | MND = 6
Ir        4.29360171268033   14.24533301927754   21.46885857433274
Br        3.58481800608343   13.56551138086711   23.78354046530939
Br        6.11059260400770   15.98258702993984   22.23895134053225
B         2.92729578130150   13.02970291156624   20.53634507206121
O         3.01744383945835   11.64912641938538   20.39051840675765
O         1.82606072315668   13.49407355933958   19.81270368184439
C         1.97676938595409   11.26687528559506   19.60667916850874
C         1.24301098263160   12.40433923089763   19.24930571060685
C         0.12513571406016   12.31736179136674   18.44619025545100
H        -0.44028710988574   13.19446799706305   18.17383371694437
C        -0.23705775267918   11.05058928664057   18.00946937829745
H        -1.10724190295457   10.94215195395328   17.38008293975453
C         0.49021629421521    9.92363018432818   18.36419703159602
H         0.17411081001546    8.95580416820596   18.00586689901077
C         1.61538443708355   10.00895118309724   19.17236219009790
H         2.18023309762619    9.13451739744270   19.45367846147274
P         2.58413959019538   15.84444805803052   21.80380172190383
C         0.95626778125987   15.19482119740210   22.34407911426513
H         0.30426617427822   16.03400833564722   22.58600574071896
H         1.06989626147963   14.56458459773474   23.22245133861644
H         0.51454653481782   14.61218442558227   21.53998208423753
C         1.99586586848586   16.98047905520878   20.48255258623533
H         1.79000651481333   16.41235666426440   19.57800801336375
H         2.74470305951477   17.74187010932224   20.28108085925187
H         1.08032463517088   17.46899921543528   20.81399399183011
C         2.93333997657306   17.04376737620558   23.13808661646010
H         2.06865318077159   17.69042852879425   23.28458764384241
H         3.80352454920837   17.64335737475020   22.87794151227568
H         3.15125515590254   16.50517489264276   24.05900406867827
P         5.76078910764619   12.40697778137258   21.60288294325035
C         6.22277845739579   11.45359196501702   20.09474811540771
H         6.54762218805191   12.09070883251193   19.27723591443083
H         5.34345519828038   10.89862409494027   19.77576635913908
H         7.02109992113161   10.75391436609442   20.34036710235594
C         7.37801568868923   12.77302168611579   22.37822756839939
H         7.18329799859463   13.17886748080895   23.37116983579961
H         7.93127693697253   13.52190047010578   21.81682101798942
H         7.96583551691235   11.85968978906849   22.46531401482747
C         5.24468436744900   10.99102543051559   22.64062682278313
H         5.94204607335903   10.16728682971944   22.48865647257648
H         4.24117951688645   10.68079879668157   22.36036391812591
H         5.24102334822889   11.28151127355240   23.68870155541146
P         5.20708396224909   15.02923985830515   19.47121258500490
C         5.00578800699536   16.77915700265414   18.96167918192814
H         5.22241814898562   17.43628298212482   19.80169017207801
H         3.99430174522697   16.95093159381596   18.60376629444185
H         5.71076818484058   16.98858564927507   18.15679414187552
C         4.58317202942766   14.21684227373845   17.93621275807051
H         5.05706141277310   14.63810352882785   17.05008435399207
H         3.50727157400376   14.36994131909023   17.87585640251979
H         4.77041024761283   13.14578557922988   17.97471980682584
C         7.02413634050346   14.89683962145500   19.21957807131954
H         7.24531193302300   14.96431477445250   18.15411357149362
H         7.42156995654857   13.96541853012775   19.61313174416080
H         7.50102623285186   15.72163586067460   19.74652069157333

