53
CSD_code = FIQLUP | q = 0 | S = 0 | Stoichiometry = C20H26Cl2N4Pd | MND = 4
Pd       11.97397121853811    5.91744703278134   12.16539572019673
Cl        9.98231901150612    7.02813119985430   12.24314628482098
Cl       13.99632864589274    4.83731645599517   12.05185489390026
N        12.90775317912432    7.58959216505526   12.69668598189683
C        12.85018174571432    7.99608431496051   13.96227984709643
H        12.31221447015240    7.34779001305798   14.65332902830055
C        13.42703382901403    9.18175666706274   14.38264408788713
H        13.36020832665464    9.47915968181131   15.41737039227564
C        14.08261531067793    9.97394933258338   13.45212617305164
H        14.54084667839671   10.90590927637014   13.74719732401486
C        14.13565066745339    9.54509425784330   12.13481618416184
H        14.63428649241954   10.13066159957950   11.37846896100420
C        13.53499764382943    8.34399117988984   11.79894296044140
H        13.55870816750123    7.96246535412846   10.77929324019073
C        10.98585040905938    4.31200390013002   11.66312117520195
N        10.78239098263363    3.83937846963749   10.42082100069435
N        10.01454976955591    2.77410229480069   10.38850531551464
N         9.67854820586011    2.54177103141774   11.63348544538297
C         8.86161716480321    1.39924852821256   11.92624019508639
H         7.80651465589341    1.67725272067780   11.95671800578180
H         9.15533768006967    0.97161156525404   12.88363410847959
H         9.00548862098311    0.67049261736248   11.12978709211419
C        10.23387193089262    3.45091068131043   12.47334923844249
C        10.03953478058286    3.60128402894715   13.90658693751738
C        11.06531281305461    4.19821969592267   14.65169978680722
H        12.02114967333882    4.43409026651752   14.17324284517820
C        10.89227711090266    4.44052652349767   16.00135607474523
H        11.69030770873056    4.89430281046033   16.57084377967586
C         9.70392177505625    4.09974267115209   16.62876826932068
H         9.57087729401749    4.29507116879363   17.68224835632990
C         8.68513615327703    3.51551711087854   15.89707241331748
H         7.75233575629293    3.25921460550347   16.37737916957485
C         8.84617843974803    3.26873674761652   14.54567085586283
H         8.02142045527552    2.85557486825668   13.98657140574288
C        11.34003350113137    4.40804982491516    9.22052569586981
H        11.46492248150040    5.48850339140648    9.41319025799932
H        10.62816613880002    4.24654655215323    8.40751077095394
C        12.69620732320145    3.77675329556174    8.89123011198458
H        13.34745438461016    3.87912505240640    9.76391505204388
H        13.14300149916626    4.33849011546419    8.06967290280781
C        12.56979463848671    2.30705298084581    8.50282751773016
H        12.05037625864918    1.76920665195200    9.29652508845544
H        11.96959483076250    2.21887259356825    7.59327205513260
C        13.94043665539180    1.67523287882501    8.27292729108903
H        14.47482699240242    2.25873178404581    7.51934942878959
H        14.51639694890294    1.72748739333839    9.19892323986004
C        13.86245671034490    0.22223722610200    7.80403526993125
H        14.86907902689354   -0.11161871269761    7.54225499045079
H        13.25105105674043    0.16611175031401    6.90009410274570
C        13.29280083147779   -0.71909546814421    8.85921293620630
H        13.85345799755016   -0.63079091480509    9.78712438363907
H        13.35341519373738   -1.75028072792483    8.51810842323325
H        12.24939076337593   -0.49221650462870    9.06284793103107

