81
CSD_code = FIQPIG | q = 0 | S = 0 | Stoichiometry = C45H26AuN5O4 | MND = 4
Au        4.95008508176107    3.19242603786789    2.47343927216348
N         3.20676453142470    3.00315868428973    1.51703808215182
N         5.68275872036214    4.34373694155160    0.93413505648879
N         6.68139546380451    3.37859706012957    3.45232551402543
N         1.59978689190900    6.15725006995581   -5.46516071605227
N        12.85052970883707    7.42614058204093    0.83453335581467
O        13.16957476743729    8.32147345100505    1.58860889310207
O        13.50941736171457    7.05549306108833   -0.11435014741436
O         1.25509153837881    5.31869695635200   -6.27154243858349
O         1.52484051784969    7.35542262935556   -5.64094520787550
C         6.93004874891748    4.88478278558433    0.84739783857995
C         7.05953330822474    5.60438869120360   -0.38428720380270
H         7.93447844519823    6.13819684937697   -0.69824233734654
C         5.88319541451344    5.47527743591798   -1.04119797508109
H         5.62094402729211    5.86437934375687   -2.00495211008206
C         5.02106461844829    4.69658464328448   -0.20311160708514
C         3.71664912560250    4.34153594216922   -0.51093616602252
C         2.89177980064149    3.57299858586492    0.31112613191938
C         1.52823419949935    3.30425096323968   -0.00261125822891
H         1.01457880064269    3.66132920015672   -0.87294150962604
C         1.02465638077062    2.55302661957276    1.00911947520606
H         0.02647779902039    2.17856571880515    1.11951270977137
C         2.07499747065296    2.35673196949705    1.94664630122976
C         1.93244790347985    1.62968401048049    3.12656999353394
C         2.96704519793037    1.50945529715843    4.03921866032027
C         2.88351944646845    0.74326604924805    5.27509596522527
H         2.01369507549288    0.19552605461065    5.58448552207300
C         4.05782931237432    0.85058996167307    5.91404762658276
H         4.33469320752523    0.42290605073886    6.85893383977954
C         4.94280454761368    1.67475950738289    5.10248002508824
C         6.23676090275996    2.01252449020400    5.46102879458988
C         7.03539159568967    2.82070714985426    4.65498570486309
C         8.38248642071136    3.15524797255140    4.96204358438551
H         8.91236202538135    2.82536509508365    5.83336784134731
C         8.84215105665771    3.93035437719030    3.94747824694102
H         9.82173393228932    4.35043016107513    3.83421152281193
C         7.77730789301936    4.07352317287027    3.01173826508785
C         7.91462944207859    4.78115411582986    1.81754525752218
C         4.25225246174209    2.07512544481150    3.94305868832782
C         3.16170275738362    4.81381728304428   -1.79587781729674
C         3.02652560299106    6.17966255064658   -2.04615611670077
H         3.31521156118106    6.88830256884168   -1.28474525345143
C         2.51331208926054    6.62535843822989   -3.24644128114047
H         2.39576605294448    7.67819324309609   -3.45307198940313
C         2.13519268116772    5.69790400266499   -4.21084563292612
C         2.26556644019424    4.33270375654155   -3.98034703917779
H         1.96716723132399    3.63755748586833   -4.75018475601477
C         2.77524677698731    3.89773106367985   -2.77498958142536
H         2.88779642310154    2.84124392852173   -2.58432740187968
C         0.63884435118238    0.97261774163877    3.39746959862208
C         0.16807982808066   -0.03441749083720    2.56028924731482
H         0.75976375417667   -0.33333496819832    1.70694780893786
C        -1.03628833967951   -0.65930505359017    2.82784708913752
H        -1.39007706639237   -1.44377116206207    2.17508807368131
C        -1.78709335567231   -0.28141112331638    3.92859551413899
H        -2.72853277153298   -0.76832866810534    4.13479368126860
C        -1.32609656910749    0.72202581553021    4.76446688539216
H        -1.90900097262819    1.02100592872852    5.62321388940306
C        -0.11813159173456    1.34337903340945    4.50464262317742
H         0.24154977886813    2.13017564607127    5.15183367514911
C         6.79712879074791    1.51169851183772    6.73186664950484
C         6.98182841093418    0.14652299771243    6.92673544272104
H         6.72849388108420   -0.54024478343660    6.13207752640842
C         7.49893929443033   -0.32462087858817    8.11983559614264
H         7.64450452805126   -1.38574645947044    8.25924826951794
C         7.82747260033904    0.55966310814068    9.13381480372968
H         8.22733506730247    0.19015951557061   10.06628313110651
C         7.64057711117212    1.91941016346081    8.94872996948199
H         7.89192066304980    2.61249399780176    9.73811723093029
C         7.13217514480040    2.39477626334834    7.75361605845797
H         6.97832882586690    3.45455693375344    7.60925269014348
C         9.20074244962984    5.46417556020425    1.56518400228136
C         9.61063098177936    6.51666528025219    2.38413467814753
H         8.97889967411932    6.82662660988138    3.20267712297876
C        10.80442120811585    7.16539960133527    2.14702080055109
H        11.13341861478818    7.98549071741463    2.76678735321258
C        11.60159402947736    6.75559308210998    1.08387784631324
C        11.21049262989368    5.70694292489733    0.25898649826724
H        11.85329942826452    5.40889034172876   -0.55522353169294
C        10.01161958188178    5.06896878823655    0.50125904253694
H         9.69877927806263    4.24810457057387   -0.12607588928144

