53
CSD_code = FIQPOK | q = 0 | S = 0 | Stoichiometry = C24H16N10PdS2 | MND = 4
Pd        3.31383229905529    1.91836650414125    1.53404721238719
S         5.29814425531088    1.25236285447374    0.53542020663824
S         3.72847677579337    3.96932424860501    2.53288893443285
N         5.61898777077492   -1.34914960722829    0.26674075182755
H         5.31467821371098   -2.26779585673721   -0.00690039734765
H         6.58314676557048   -1.09225604397211    0.14290712036079
N         3.42868172726532   -0.68220999291435    0.30760205614646
N         2.61827216521145    0.36894075328548    0.41292293591856
N        -1.97127805798396   -1.04579703561864   -0.04638523964954
N        -1.77687049168829    2.04016552906909   -0.34017157529386
N         1.63602069115057    5.54825525302302    2.80087889424744
H         0.68789723361962    5.74435368769254    3.07292938829899
H         2.34045437277431    6.25482754041347    2.92522558668717
N         1.11799390187777    3.31808673970550    2.75903439957709
N         1.62272467120505    2.09057793313744    2.65280919717083
N        -1.89825951385671   -1.17611870205541    3.10724984819439
N         0.87096344978663   -2.55155060462529    3.40293521267382
C         4.70531389919599   -0.36795417299268    0.37781301609177
C         1.35065910825121    0.31173431830423    0.12688514265579
C        -1.78299438164475   -2.34944438592215    0.09882096226250
H        -2.68668381966433   -2.94256308089596    0.12074916396011
C        -0.53679197301575   -2.95245816439837    0.22529648213002
H        -0.46522413397033   -4.01994301586420    0.35827841195598
C         0.60861755410093   -2.16964294400479    0.18915940835355
H         1.59808953100184   -2.59240127076935    0.28225598855817
C         0.42955836939357   -0.80532495947832    0.03544559948982
C        -0.89171144715540   -0.29317669774143   -0.06782553674914
C        -0.81093512716395    1.16276893449191   -0.15757708710017
C         0.55536144394190    1.51764221246813   -0.04140928279851
C         0.93224549567899    2.84531907916205   -0.19534279375525
H         1.99234617298747    3.15642156216656   -0.22461247722811
C        -0.09638805740980    3.76222140773735   -0.37364587511855
H         0.11857894771957    4.81316916965698   -0.49102989229343
C        -1.41230389349991    3.31172522920898   -0.42093240936598
H        -2.22576216363437    4.01243245776980   -0.55508737808837
C         2.02887595298385    4.26623664829981    2.69112617391643
C         0.93891688883879    1.02133728564153    2.93772437624084
C        -2.93270718059704   -0.36093456229557    2.96106862191174
H        -3.89836637948857   -0.84667977487222    2.93855491488062
C        -2.83142312390374    1.01986954920735    2.83563094247638
H        -3.71985916564927    1.61597350787345    2.70262960629646
C        -1.58075249864507    1.62016419581102    2.87396533194539
H        -1.45174970798654    2.68844275995972    2.78143094722667
C        -0.48910163232829    0.78253286740186    3.02806914962333
C        -0.70658197096002   -0.61780838763926    3.13034305595568
C         0.59449994103069   -1.27615329477210    3.22088633336440
C         1.58531627962382   -0.27039705415900    3.10695777227908
C         2.92327160143379   -0.60814831896783    3.26260400498600
H         3.72310148188518    0.15401255835420    3.29205949398365
C         3.20264570328802   -1.95772738772624    3.43946098423768
H         4.22004877119650   -2.29726364237275    3.55806537334622
C         2.15428936353465   -2.87190765712761    3.48487758032900
H         2.35403392117870   -3.92675817172756    3.61936936176278

