83
CSD_code = FIQTEH | q = 0 | S = 0 | Stoichiometry = C31H46AuClN3P | MND = 2
Au       10.57670130465069    2.55407339940107   14.55382044912470
Cl       10.00845203215564    1.00248910720311   16.13669571710289
P        11.16567001265423    3.94884208025436   12.89157834592461
N        11.51695560520107    5.53172842549523   13.00061174893462
N        11.61802046050501    6.44695265181772   15.26818865310483
N        12.50046305169539    7.53081278039347   13.59328630119160
C        11.83824180839007    6.38396860673707   13.92631247897887
C        12.13510046074632    7.64301280311800   15.76290238930117
C        12.68338897747216    8.31402791365657   14.72523115834715
C        12.03333506613633    7.98834959033582   17.20340844197466
H        12.23422536801129    9.04611947752789   17.34867770775947
H        12.75109944289957    7.41592660973120   17.79095805982944
H        11.03799051193722    7.75678555981155   17.57888349460116
C        13.37308140258291    9.62761310052852   14.64974835940019
H        14.45291918387862    9.49755827088721   14.57349607066948
H        13.15930747815945   10.21474048868705   15.53838232194875
H        13.04110254540283   10.17672506392631   13.76961917253174
C        10.85388921039167    5.55677131213648   16.07085607168120
C        11.50064429023214    4.60841614532219   16.86587581999533
C        10.73451973023769    3.81324921214419   17.70305860154471
H        11.22341455710964    3.06904984836710   18.31292108727560
C         9.35161416735341    3.92704316835284   17.75227990821678
C         8.73726833721618    4.88336947574057   16.95807057298173
H         7.66227204720694    4.99168106639017   16.98948665353160
C         9.46873209192483    5.71786220307977   16.12594490926298
C        12.99146602814822    4.44665324495487   16.84812420957772
H        13.24738313437044    3.38990021652747   16.80921628661178
H        13.42578200362207    4.85916173363298   17.75962103766198
H        13.44090275319662    4.94733835063126   15.99392292142545
C         8.55902060120477    3.00640883115050   18.61897256070322
H         8.61419136418460    2.00588830476557   18.18976201283081
H         7.51697308623507    3.31009926396976   18.67491923895187
H         8.97677710977371    2.96200979509037   19.62284508174288
C         8.77589746790574    6.80668527919674   15.36024548374879
H         8.68460859835158    7.69745812630426   15.98468103525096
H         7.77462588677438    6.49296848444888   15.07572144577310
H         9.32600141091929    7.08236314365530   14.46451732595209
C        12.90928007653133    7.85371166844100   12.27447762437708
C        14.22516572686852    7.63066378883061   11.87643532257085
C        14.58012076845707    7.93420481878177   10.56852796812450
H        15.59825865841075    7.75877881298105   10.25193750597300
C        13.66096576957343    8.44192635485790    9.66418701482513
C        12.35758309404092    8.66082027207030   10.09080254162516
H        11.63141343231042    9.05891966795530    9.39677070052415
C        11.96525403462440    8.37696949045823   11.38821496857210
C        15.25631374141298    7.06584971402011   12.80696116075590
H        16.09082049819780    7.75901735150242   12.90813177672503
H        15.64755278866870    6.13299420123739   12.40382003141559
H        14.84654016329013    6.86982027031898   13.79413223403530
C        14.07183626640339    8.77111900184197    8.26220669974609
H        13.22337119136936    8.71211473785833    7.58514968521602
H        14.84842051431423    8.09272382010600    7.91725686045620
H        14.46851522774787    9.78603427214346    8.21980870812885
C        10.55738189597437    8.61523291115090   11.84039512411429
H        10.06465811526053    7.66293611447929   12.03391160416801
H         9.99325956905851    9.14589793278665   11.07822677098429
H        10.53697615886046    9.19641168049150   12.76204347401723
C        12.76089901393523    3.27872829339781   12.12818801185307
C        13.74965907870022    3.38432549184064   13.29234625746532
H        13.88372171788431    4.42573184353152   13.58134502428106
H        14.72098217447617    2.97771104910823   13.01303611941471
H        13.37791494180057    2.82769016561134   14.15427882363128
C        13.27109489023415    4.10727989491516   10.95458704677289
H        12.72772472906059    3.87854227201005   10.04261330247889
H        14.32468246717019    3.89040092356913   10.77919289239670
H        13.16573240113128    5.16938132195080   11.16530207865679
C        12.60842886368412    1.81087196741145   11.74754056713051
H        12.06369877366197    1.26980171328054   12.52262115334667
H        13.58988622546193    1.35051378870071   11.63730348859814
H        12.07863135264645    1.69618602907606   10.80548162292830
C         9.76574784925105    4.00709906366818   11.63928589519279
C         9.32744470320399    2.59651210802157   11.26168678645220
H        10.03107663033071    2.12674623756637   10.57988561452721
H         8.35503106087871    2.62796435343670   10.77117492670732
H         9.23988848300191    1.97326952563710   12.15273166031116
C         8.63632566279402    4.67314694024415   12.42963129752805
H         8.48050644078323    4.15527217699641   13.37846930195829
H         7.70473718854570    4.64997844771183   11.86554722120501
H         8.88444308117611    5.71040701011013   12.64137444145450
C        10.08625519543852    4.83815482307429   10.40085241904818
H        10.67624624387192    5.71038686117804   10.67206140231504
H         9.16273184890796    5.17284837726333    9.92937100463941
H        10.64158270176906    4.25649930304143    9.67015072792426

