49
CSD_code = FIQTEG | q = 0 | S = 0 | Stoichiometry = C21H24ClIrN2 | MND = 6
C         8.40594131269832    6.46504804222385   22.50308924407425
H         8.65436102774750    6.47208787948392   23.55411585685881
N         6.30374466177491    8.38915327125650   20.13313301591293
Cl        6.44102133486839   11.11441843397183   17.72180287417914
Ir        4.58406709914449    9.75164602811586   18.14764840643425
N         6.51203365086403    7.50505151832305   18.01029466883938
C         3.26797895429057   10.91287889175434   16.84979752155154
H         3.90955207374702   11.35578162474068   16.09235309124605
C         3.28132716066186   11.47895471518783   18.10837187822002
H         3.90914617077970   12.35311951845131   18.26479590698461
C         2.18183573366515   11.32285222790648   19.13284414189564
H         1.31920428700426   11.92682786137267   18.83204506103534
H         2.54229942831875   11.72921688217891   20.08015843141904
C         1.75154139220289    9.85876806797132   19.34691551756746
H         1.41358400617648    9.74128461673756   20.37830361987055
H         0.90491167428263    9.61464809213885   18.70371294646363
C         2.87521310452596    8.87638093113343   19.07827712951899
H         3.14404041642750    8.27231305516192   19.94277543822227
C         3.08782080202519    8.28765561505881   17.81639319951446
H         3.47337166144571    7.26811846208521   17.81267144520888
C         2.26468510942667    8.59574011674508   16.58480477355566
H         1.27894054067118    8.12667209676471   16.67777184526980
H         2.75936249022308    8.13218534021366   15.72840259872910
C         2.10696340506549   10.10415979799065   16.31516760421151
H         2.02854833664461   10.26256407687000   15.23802101984077
H         1.18302039170024   10.47346610972508   16.76235410197945
C         5.93498462290986    8.40507567770628   18.83465036717332
C         5.80595961802269    9.42616896499103   21.01279063992167
H         5.23019220752668   10.13890042057713   20.41892772583233
H         6.64340823174911    9.95393383302067   21.47018559896312
H         5.16956578050437    9.00115585948161   21.79075138910282
C         7.18571125849912    7.45969992028441   20.68117826041265
C         7.52329384924706    7.43695294349910   22.01906383632095
H         7.12218898157214    8.15369610396033   22.71456317739338
C         8.94821746589389    5.52102871014218   21.67661548322223
H         9.62782052951187    4.77479695943542   22.05896008017705
C         8.62654347511386    5.50929123906514   20.30463689622272
C         7.73529113727224    6.49089324480614   19.80849706962298
C         7.39704735885560    6.51579037230676   18.43482249643282
C         6.25401309785939    7.59477594240122   16.58809938180332
H         5.66397089250453    8.49324806625837   16.39726449917399
H         5.70854758467708    6.71744420292793   16.23619705568983
H         7.19816784124581    7.68106643482696   16.04940726962907
C         7.93362422872183    5.56881364615150   17.58647172517047
H         7.69373866339347    5.55065595098321   16.53742026438161
C         8.81110985768129    4.59890961933226   18.08363766140880
H         9.21721595711322    3.87071193134536   17.39718613724713
C         9.15610410197712    4.56192910833017   19.40574137427454
H         9.83576703176509    3.81166757460402   19.78001027182017

