30
CSD_code = FIQTOQ | q = 0 | S = 0 | Stoichiometry = C13H10Cl2N4Pd | MND = 4
Pd       -2.63453164253700    2.90714295587503    7.52277658579534
Cl       -4.65390232029308    2.69274886612237    8.36726572074148
Cl       -2.34341168279133    0.73007533416289    7.63718868464184
C         2.39453300354695    2.93928588995729    5.47880598774571
C         2.64033837273917    1.56694944085057    5.52075450413763
H         1.87094864308572    0.91421266033928    5.90173648250437
C        -3.76651775681021    5.75300359460692    7.67449137522639
H        -4.63300013912335    5.24348719996894    8.08231309556376
N        -2.74530338985565    4.95981288605371    7.34649768021917
C        -1.49990314012959    6.88254652216044    6.62964149265172
H        -0.59359603221955    7.29301670012047    6.21596268587382
N        -0.86106195773395    3.27672284164225    6.76254466105427
C         1.11364851502302    3.43865197231151    5.94597606768890
C        -1.63134065424252    5.51288734166846    6.83357084634596
N        -0.63645835046172    4.59662697160423    6.52975924605896
N         0.15611954929542    2.60146824474358    6.42345323910721
C         0.61521970535788    4.72625064004302    6.00942261105887
H         1.03753338470371    5.66847467201039    5.73743739820052
C         3.37702844173693    3.79882682594547    4.99042914945208
H         3.19845114118938    4.86319688543734    4.95398056887598
C         4.58430233553495    3.28978282500763    4.55095489363199
H         5.34259411174318    3.95957954657272    4.17313126202584
C        -3.71429840041976    7.12311619078399    7.50318700969459
H        -4.55861491299964    7.73228942904088    7.77974056837578
C         4.82333920970950    1.92548933266928    4.59367519733396
H         5.76822332920894    1.53337381712436    4.24831076950660
C        -2.56361944929813    7.69766485656731    6.97235741064674
H        -2.49573778815813    8.76423903484521    6.82763723186295
C         3.84982893842417    1.06688336100804    5.07936678509893
H         4.03528893577094    0.00399316076121    5.11343078887969

