121
CSD_code = FIQTOR | q = 0 | S = 0 | Stoichiometry = C49H63AuClN6P | MND = 2
Au       -0.50720864029058   12.79545472278989   18.27846879314265
Cl       -0.59807899557363   15.04819938373689   17.82191439726234
P        -0.30188303704843   10.59635277810771   18.68764845017362
N        -0.20438233004223    9.56149878929658   17.42976370423435
N        -0.13233532579305    8.63210446169874   15.32660625788707
N        -1.58452916097724   10.25327852676108   15.54148101604293
N        -1.28410333103182    9.72110208471106   19.67561360892438
N        -2.45419364721617    8.83865708076537   21.46523455046106
N        -1.36150519195341   10.68165345857119   21.91759893432064
C        -0.64012695054428    9.53620862443117   16.21735619846931
C        -0.77389706010346    8.77127932281032   14.10393616656916
C        -1.67567911422431    9.77042699195646   14.23760913413391
C        -0.46877902540968    7.89670650317310   12.94042335896867
H        -1.39003149496337    7.53270549355372   12.48752936017264
H         0.12641673417031    7.04559813635384   13.26412829235096
H         0.08635843114035    8.43938369034292   12.17491286604295
C        -2.64943669723003   10.31597862480551   13.25682321700196
H        -2.96429879112509    9.53183874081434   12.57151390284509
H        -2.20776119008149   11.12170548853188   12.67017541673001
H        -3.52041251316893   10.71201479093892   13.77544296107135
C         0.89316455358967    7.72007142267380   15.67319822422234
C         0.58166218037301    6.62900678684356   16.48629008940292
C         1.60260884880298    5.76727782337377   16.85391484527593
H         1.37560494080617    4.92150622703101   17.48759792421722
C         2.90990494101497    5.96805323342871   16.43152999182360
C         3.19111640043385    7.06359993225348   15.62949321261638
H         4.20697490614688    7.23840735623018   15.30459920025191
C         2.19921080307807    7.95524992678190   15.24690478704190
C        -0.82195245890557    6.41544033120415   16.95698383220867
H        -0.92218628007836    5.45088303146327   17.44627804367753
H        -1.52325979969329    6.46416340105388   16.12500451813765
H        -1.09256881642549    7.19819926126913   17.66483465032918
C         3.99816684327702    5.03304012035825   16.86423108367654
H         4.85280569476333    5.09295713150110   16.19502315121311
H         3.63929426458497    4.00628870804533   16.88874049362122
H         4.33352203620713    5.29479626054807   17.86815513377458
C         2.52793267532924    9.14902929917885   14.40254345505486
H         2.30068251101046    8.95148894463137   13.35488139680223
H         3.58502794202690    9.39035951089125   14.48035466260044
H         1.94696264022057   10.01458569741924   14.71556282873888
C        -2.45440611484967   11.21662142218450   16.10764881974769
C        -2.33069500964821   12.56403508084734   15.76168336221927
C        -3.21609506984125   13.47278098062087   16.32301790484308
H        -3.11101827345986   14.51881953651276   16.07922651859626
C        -4.19532723082942   13.07299507120080   17.21992460278587
C        -4.30979867034192   11.72492823325025   17.52770379480165
H        -5.08627134332949   11.39757872152181   18.20581855168824
C        -3.45850327768806   10.77956314209389   16.97483152206076
C        -1.26892874924414   13.05671710003798   14.82715269541872
H        -1.70746516568577   13.34465475266116   13.87156093709412
H        -0.50553152555210   12.30235329264902   14.65132591586618
H        -0.79795624116985   13.93868233541964   15.25720471047536
C        -5.11129920693136   14.09113776757502   17.82713513926869
H        -4.53509569317373   14.94458662657743   18.17879250024952
H        -5.67157960823998   13.67024185026599   18.65895387620142
H        -5.81970302643566   14.45327034374972   17.08178270576094
C        -3.61269061073142    9.32457839504892   17.29107265668799
H        -2.86346598352333    9.02670603119202   18.02627697632674
H        -3.47278817552803    8.71278880098472   16.40098307138395
H        -4.59721001844954    9.12306452894751   17.70415438483094
C        -1.65238190504889    9.80162783467300   20.91182699311649
C        -2.66234813641841    9.12524656878917   22.80951735844165
C        -1.99079058376709   10.26419050119128   23.08774443614491
C        -3.44607423991486    8.23096471477878   23.70402407040732
H        -4.11004012832424    8.81289413355974   24.34145834385007
H        -2.78239561852010    7.65603830143929   24.35107265159841
H        -4.03661756664188    7.53267182004548   23.11555300644395
C        -1.87832702435469   11.02323719311687   24.36012575523192
H        -2.77694883623651   10.88384578973229   24.95698928526713
H        -1.74535536000567   12.08359050107816   24.15336662232327
H        -1.02555298753303   10.68136538283154   24.94753774397572
C        -3.12662902504840    7.82451027986250   20.73726461954899
C        -4.46296292967838    8.02536449069535   20.38308562243298
C        -5.12415146437195    7.02203966734122   19.69418793524503
H        -6.15873184687347    7.16527908647689   19.41504128324881
C        -4.48522065124993    5.83860680149220   19.34696737853469
C        -3.15754948123083    5.66955906186064   19.70486262666041
H        -2.64942362941960    4.75286577241844   19.44179450102892
C        -2.46185765976409    6.64811322244772   20.40117597881629
C        -5.15151052665027    9.31179724132322   20.72452716401459
H        -5.26467203110323    9.42187679582701   21.80259839256028
H        -6.13887823239100    9.34983092322757   20.27088518864543
H        -4.56390962089613   10.15463132299074   20.36386222524870
C        -5.23109642088506    4.77308728168556   18.60305053483120
H        -4.57059340581682    3.95609855348878   18.32495993290620
H        -5.67929383166719    5.18355728444626   17.69966759232221
H        -6.03507347372583    4.37326274976050   19.22047233318065
C        -1.02466295377450    6.46174986536469   20.76681028699177
H        -0.84879929577074    6.73785047818395   21.80553779566570
H        -0.41019029057624    7.10572644417475   20.13959985215837
H        -0.71558538591782    5.43060411698407   20.61776811974235
C        -0.76575503952223   11.95874002666786   21.75839373918959
C        -1.54454315911879   12.98636242110898   21.21629659341476
C        -0.97857065518875   14.24142937265114   21.07242292659184
H        -1.56102986083708   15.04059321815021   20.64034422436092
C         0.33996223900876   14.48811228523855   21.43838080266950
C         1.07485517779693   13.46191916304632   22.01017969178585
H         2.09547651304606   13.64290800188712   22.31790066522754
C         0.53621302342205   12.19439553252271   22.19440145079502
C        -2.96066456232824   12.72582817630750   20.80114674258718
H        -2.98108512481467   12.05381146172906   19.94091744687941
H        -3.44458565300454   13.65410427665570   20.51160107827263
H        -3.52711364519248   12.26627812358504   21.61237293879837
C         0.92981464892377   15.83733985552952   21.18498052880069
H         0.82717947372073   16.07233080868138   20.12598474056053
H         1.98141536857904   15.86956174367748   21.45830445925730
H         0.39420515646995   16.60188113831279   21.74649573323288
C         1.34197848097550   11.12437219910538   22.87139121578571
H         1.29301714333065   11.25390937430486   23.95352934128677
H         2.38757008229642   11.18709475168003   22.57721110733996
H         0.96758899854228   10.13293275172949   22.62769765394275
C         1.44520270516122   10.37801386180036   19.31603877100480
H         1.55079067075861   11.04200063838097   20.18122904390858
C         2.39499156711991   10.84414308888037   18.22213488940720
H         3.42227023754857   10.86688545177092   18.58401402966101
H         2.12152473326405   11.84609826025405   17.88654071113721
H         2.33762645975030   10.16440190664245   17.37398603443728
C         1.73248844185802    8.93887930493856   19.71287910131336
H         1.47704590522901    8.28040825752359   18.88426384522179
H         1.14599007482049    8.65517860291899   20.58458141244253
H         2.78808664104181    8.80914564959274   19.95089069304162

