183
CSD_code = FIQXEI | q = 0 | S = 0 | Stoichiometry = C63H89CoF2N13O14P | MND = 6
Co        0.80833876406898    2.81926065095094   -0.31756561139612
C        -0.39006664929974    1.11113160088704    1.59442320933002
C        -0.12127368389521    0.82793302639351    3.11100498281963
C        -0.13282928736562    2.26287407538376    3.69632736692958
H         0.55395985248364    2.29376030286424    4.54163452895241
C         0.42250128894548    3.04183683789923    2.52853125560657
C         1.08622751183136    4.29108577843862    2.67608627389964
C         1.54520932862332    4.95796615034755    1.56561377134004
C         2.45073983263869    6.18961353918469    1.54113370806988
C         2.07119799553879    6.77683485340933    0.16388742337560
H         2.90166384998269    7.31203482429481   -0.30151677214776
C         1.72745431294950    5.51289411366286   -0.57555875091646
C         1.86263928322411    5.39104414186842   -1.93297174207356
H         2.22929068976292    6.24327949813593   -2.47930914594221
C         1.57610337373730    4.24979956183687   -2.66448228050679
C         1.80464818712305    4.18232945837902   -4.15500774874808
C         1.05861445061368    2.88209278602491   -4.51191462093783
H         1.64928591119749    2.31301904522827   -5.23075144270133
C         0.96473215321704    2.19065587644143   -3.16900970147721
C         0.68257543151040    0.85531817336380   -3.02617681093798
C         0.42324055789034    0.30575324270260   -1.73448875675892
C         0.19909103515223   -1.17105935905132   -1.40896221618558
C        -0.36599492380671   -1.07076625825076    0.03418478349157
H        -1.44443184965442   -0.91861355975132   -0.04207475132972
C         0.29100155127987    0.21423629981511    0.54129911367924
H         1.30518731212385   -0.02592552493615    0.87646967317390
C        -1.88377914303269    1.21462142813266    1.26321164250989
H        -2.31847210989511    2.11022115074351    1.69384327543510
H        -2.41774087407359    0.34464604387568    1.63168176287326
H        -2.03283075769210    1.27164250313108    0.18879625839942
N         0.27477911831589    2.40941276394360    1.40327420129858
N         1.31913483360529    4.56008178919108    0.27655283830447
N         1.15493392008209    3.09814794150199   -2.15703743460323
N         0.42276440004514    1.03424004139046   -0.65864085057574
C        -1.09040309652213   -0.11626590983703    3.80952497967646
H        -1.20325870857646   -1.04724374411520    3.26224626811296
H        -2.07680234733396    0.32113871320695    3.91681652564056
H        -0.69616383590483   -0.35028149147049    4.79647670188633
C         1.32927980569306    0.30562210537320    3.28762847882684
H         1.36071868375101   -0.76353269277780    3.07469238947375
H         1.99536551724298    0.83195091770074    2.60478258067136
C         1.86917394533257    0.49532670025859    4.69854860282455
O         1.45475315429765   -0.11002892806305    5.66561401691290
N         2.86608240458585    1.40255095763296    4.79227723917876
H         3.29110739752869    1.54711914679768    5.69397625680745
H         3.19324455215569    1.95943231529140    4.01669986768487
C        -1.46322398762823    2.86335294809485    4.18307424690305
H        -2.31001011823899    2.46165805227962    3.63231914027426
H        -1.45461143325601    3.93854160222866    3.99732222644355
C        -1.70944205357846    2.65482793434355    5.67653279263959
H        -1.86303087140276    1.60253382454174    5.91151578290063
H        -0.84761026692380    3.00055880996128    6.25532926236049
C        -2.90838419802682    3.47237099873751    6.13396459452014
O        -3.29281282986257    4.47329989941696    5.56943230455357
N        -3.50289768317329    3.00553415007083    7.25288146127565
H        -4.29739996274447    3.49926674081866    7.62502177663157
H        -3.19456327256861    2.17126509811054    7.71861352505183
C         1.26236338205073    4.85147829798649    4.06490330373818
H         2.31451943594139    4.98428296877512    4.29936249558909
H         0.84437236055478    4.19209609192138    4.81299486923458
H         0.75928607319843    5.80998752467979    4.16639632699692
C         2.38936209029296    7.24108780757820    2.64508643673922
H         1.36806655097614    7.52144422107541    2.88065112545936
H         2.91395757828504    8.13184492896620    2.30025906231273
H         2.87726983466072    6.90430824540650    3.55320928626717
C         3.90706345950776    5.64672578336437    1.44203512827138
H         3.98861101392890    5.04010928479862    0.53905456058876
H         4.59140497486067    6.49239943769668    1.35914025079124
C         4.30172677593409    4.77221675125046    2.61398337390827
O         3.89412654774174    3.63922895487006    2.78977180097255
N         5.14450737698892    5.35518628107632    3.49706798492276
H         5.51025895779910    4.80260660660627    4.25636405731965
H         5.56915146412792    6.24811592082786    3.32048703954933
C         0.84707962121451    7.70981072958263    0.23562902831585
H         0.05713573959105    7.20868105041424    0.79954953715406
H         1.13548829638558    8.61194646369896    0.77724265629209
C         0.30032301451745    8.12392223892673   -1.14145523939824
H        -0.06493453688155    9.15142123179941   -1.09031728264306
H         1.08539288838587    8.08176388505996   -1.89381090936672
C        -0.86014965518378    7.24654571979831   -1.59363375927389
O        -0.78709220763417    6.40686213425140   -2.46182763594409
N        -2.01706220086570    7.52573488086053   -0.95411530538193
H        -2.82508610915005    6.95050422187149   -1.13121901673454
H        -2.05733762455683    8.16750005088461   -0.18325371039105
C         1.35362386132988    5.44623156367615   -4.88194256847091
H         0.38822135822062    5.78377696741967   -4.51667093075206
H         1.29838704077124    5.26516182717971   -5.95060965389511
H         2.07425408377180    6.24501695636778   -4.72205106016264
C         3.30921713298427    3.96209176644556   -4.38721313879299
H         3.88195567096055    4.81143678975794   -4.02215773002869
H         3.50248343232130    3.83850891679413   -5.45020393718696
H         3.64960170637352    3.07244337428601   -3.86181814732672
C        -0.36902959357548    3.03962455132543   -5.07941185326033
H        -0.98091717632171    2.20603324502979   -4.73078015002813
H        -0.82431208979193    3.95396695646277   -4.70055125165942
C        -0.41942638679092    3.02575264035479   -6.61181893392321
H        -1.44363543261715    3.21437942590524   -6.93281689645305
H         0.22985221622086    3.79368562159991   -7.02941133801209
C         0.04675733438591    1.67669308822281   -7.13330391193345
O         1.19458495780740    1.47093039930625   -7.48078361916055
N        -0.90227311090088    0.72378555188116   -7.15687447777204
H        -0.63914090828564   -0.22090289788373   -7.38612877984293
H        -1.80630660747874    0.85226526821822   -6.73577052766215
C         0.66244787518444   -0.02531246322296   -4.24281968542675
H        -0.35523063539152   -0.27563821323222   -4.54313808328164
H         1.19754689661445   -0.95090161690027   -4.05647253888360
H         1.14693013988765    0.45289317683036   -5.08467613829474
C         1.57846770894545   -1.85097110613782   -1.45117750561062
H         1.47996543659468   -2.92691730020707   -1.32773296631161
H         2.23541574013894   -1.45211322870766   -0.68290930144449
H         2.06070048940405   -1.67241777969783   -2.40696325354513
C        -0.78131436168693   -1.93975671531945   -2.30559652324177
H        -0.32121971512306   -2.14867490120476   -3.26857006809026
H        -0.97374581105762   -2.90503209939817   -1.83322119326753
C        -2.12455290025463   -1.22555192352223   -2.52759642807491
H        -2.82738467990629   -1.49058473274838   -1.73948129580995
H        -1.97532009298828   -0.14482970179613   -2.52202635855870
C        -2.66945423841941   -1.63643421400623   -3.88727555099882
O        -2.24232520987079   -1.14303649034280   -4.92332758336802
N        -3.52584221288143   -2.66707041394771   -3.85416300605680
H        -4.02920535590208   -2.83909959244406   -2.99617899078964
C        -0.14905232315051   -2.30613716397964    0.90340780113002
H        -0.19255968138767   -2.01889779474901    1.95501462935650
H         0.82035902032403   -2.76899802105983    0.73218358093363
C        -1.26961823341565   -3.31761720546432    0.69748108825862
O        -2.39604322777778   -3.00773338495121    0.38394451578112
N        -0.90914769507954   -4.60305008354532    0.91437147980446
H        -1.61813983957537   -5.31616884656523    0.86122579973899
H         0.00470438273345   -4.86205482479560    1.23938135666302
C         2.67421274676828    2.33956839567775    0.00154837410448
H         3.00923014259434    2.45733572731323    1.04691234453284
F         3.03882783503851    1.06687863834457   -0.35973688914322
F         3.52226107144995    3.12881941177704   -0.73571714010498
P        -6.76112805750935   -0.76044008707119   -3.83832472836958
O        -5.23600176543236   -0.09551360749611   -3.34578475540039
O        -6.20213063274974   -2.24965680683848   -4.18152631273126
O        -7.62470609734861   -0.81634882177962   -2.65443947741431
O        -7.10652500966079   -0.03233021398513   -5.09288872299527
N        -3.11359834878363    3.63763303950384   -1.79665368687654
C        -1.86977744869611    3.13420450793266   -1.76408529522613
H        -1.51306983665483    2.47799364677032   -2.53148355816764
N        -1.16464118435741    3.53676423747507   -0.73302165164631
C        -1.84206807181714    5.07358470441469    1.16425127362134
H        -0.90021168009212    5.06169329114717    1.68064028407119
C        -2.90237012011463    5.78781743480862    1.68897557725072
C        -4.15599323646258    5.79811651369890    1.04125469169847
C        -4.32790475355131    5.11845582813864   -0.15167883493644
H        -5.28483230775606    5.12200933205922   -0.65077359816554
C        -3.25384973954810    4.40997513846183   -0.67273423209793
C        -2.00788733445929    4.35707055697259   -0.01526634932475
C        -2.71300898084682    6.53138857297765    2.97636597905284
H        -1.65426214192518    6.62692170927570    3.20853968176068
H        -3.18788034211496    5.99349519407065    3.79724071937510
H        -3.15088993032624    7.52621460704721    2.93116247554269
C        -5.30837046380439    6.53645409441806    1.64938032518359
H        -5.11767781412633    7.60964199504649    1.67122362965316
H        -5.46725614899770    6.20732987880414    2.67455901033347
H        -6.21795713001084    6.36209863090736    1.08149298862887
C        -4.17599053053890    3.27304694203300   -2.70307517517436
H        -4.87133636606117    4.12445465841444   -2.74875647456878
C        -4.89547090069546    2.00281545458184   -2.20054428867224
H        -5.80765804710223    2.25180028046701   -1.64327554391216
C        -5.19990213265833    1.27238610001692   -3.51639395314619
H        -6.14689227876841    1.64805260716423   -3.91864599314538
C        -4.03810943236045    1.70632848354527   -4.41958144787784
H        -3.18693780981739    1.03016511707734   -4.25522547228182
C        -4.38465099193968    1.69174541022750   -5.92250581534955
H        -3.75671259289448    2.44355438525676   -6.41303964651832
H        -4.11624026413463    0.69325980881705   -6.30248616193661
O        -3.67605716100126    3.01924240791346   -3.98141025038453
O        -4.04425541460887    1.22429316501333   -1.40304544994171
H        -4.33318559185090    0.31032580792564   -1.58105670627711
O        -5.69883608092290    2.00874500508615   -6.23832278551542
H        -6.29080641128675    1.28336772330010   -5.92240216574421
C        -4.17772989083748   -3.16701576051806   -5.04341569122042
H        -4.43913747275037   -4.21345822482227   -4.86929549179643
H        -3.47330375089624   -3.09031957325364   -5.87424770517248
C        -5.44652772271058   -2.36217421442292   -5.36551435800274
H        -5.14892602474634   -1.36051606735299   -5.69510097517923
C        -6.27488712283728   -3.02185969930327   -6.45863271625831
H        -6.62467333875205   -3.99509635449524   -6.12210285870926
H        -5.68574374835061   -3.13834372117317   -7.36525594600956
H        -7.13665267026539   -2.39286332266945   -6.66329784248738

