88
CSD_code = FIQXUB | q = 0 | S = 0 | Stoichiometry = C32H50ClIrN2P2 | MND = 4
C        11.20087509985136   12.59140031324820   13.82235049529410
C        11.58477828370340   13.80571994669556   14.50364873872830
C        10.65655627071581   14.86923215269685   14.57129652961692
C        10.96228501751320   16.07720675084780   15.15429536338023
H        10.23936787904960   16.87401730308999   15.12082762971313
C        12.20860089267586   16.27436762447934   15.76603376053324
C        13.12121110161975   15.21485040389812   15.71314256371802
H        14.08519929206967   15.34434327955850   16.17529065170751
C        12.84642730527424   14.01169871110800   15.08538939885229
C        13.93206718158319   12.95428032754887   15.04167517424841
C        13.51285281478315   11.71432432552156   14.27679859918076
C        14.43674499578785   10.69635314763658   14.10928498986479
H        15.41441579892866   10.81472737150708   14.54494825222440
C        14.16048770205796    9.52603478547422   13.39358550856416
C        12.86504122413957    9.38246713455308   12.87449824602244
H        12.60172302758462    8.50674421375406   12.30615314023927
C        11.92423088621936   10.36625657238351   13.07039601835388
C        12.22027189841407   11.57154440003185   13.74691470214306
C        11.59191672001803   18.55599076075753   16.37185338114676
H        11.46830458698397   18.95932919128743   15.35864613594616
H        11.95541283901800   19.35366299908949   17.01636921555590
H        10.61468198777134   18.24682191436182   16.74718283725746
C        13.88476763782380   17.73336997345238   16.77107990228781
H        13.95694033426836   18.74722218147947   17.15746681679644
H        14.55676807607674   17.64645366813178   15.90946199895064
H        14.22960488057698   17.05204842051817   17.55368298913420
C        15.16980063398945   13.55976101215172   14.35226746499690
H        15.98847132719488   12.84666155624772   14.31618479812559
H        15.51898024622317   14.44372894488029   14.87846016156807
H        14.91521844578268   13.84340586900199   13.33299882714007
C        14.26792346923204   12.53960581108179   16.48665141643797
H        13.38270771165345   12.11886487307166   16.95947836904754
H        14.59662350223692   13.39446907685990   17.07159421720385
H        15.05594763269712   11.79128886758096   16.50368483527917
C        16.42473993399156    8.69201878607208   13.78272747692066
H        16.88584020465401    9.63615998363187   13.48452741017273
H        17.06480773467940    7.88579071604474   13.43100051703673
H        16.38770392026397    8.64927023276099   14.87876526781085
C        14.73759924504561    7.27462442994820   12.65919553274770
H        13.94668462242439    6.80805882907300   13.25747859325167
H        15.59887630476236    6.61093201133561   12.66072474124929
H        14.38631334812658    7.36615026473060   11.62754064803955
C         8.80216381605267   15.90736506537060   12.62385913927879
H         8.94361544182682   16.85288877599929   13.16151584147561
C         7.39950911308155   15.83913695823584   12.02951494370690
H         7.30121744263682   16.54186874230228   11.20278716542714
H         6.64106115441799   16.07900373344627   12.77225325482755
H         7.20533747988530   14.83580534445242   11.65298359479375
C         9.86547559205895   15.77880431912540   11.53648425616586
H         9.75917202960086   14.81489581524828   11.03711169617655
H        10.86441782876632   15.82794035428599   11.96898806911464
H         9.76412104295657   16.56923737234256   10.79407941195816
C         7.76752695105057   14.65192191173452   15.09121635804273
H         6.82845536213484   14.44668110676611   14.56083214910786
C         8.00745547660521   13.52967664389732   16.09766898711539
H         8.95927106100542   13.67409454891401   16.60810534244738
H         8.04205748334320   12.57127031764207   15.57717611342517
H         7.21222436341047   13.49499407143420   16.84075659454722
C         7.66414858815830   16.00134634659976   15.79110459313348
H         6.78031129567436   16.01357162026391   16.42880595897812
H         7.57511073445259   16.81975476037065   15.07981369939865
H         8.53406164043933   16.16920013241050   16.42206631108725
C        10.31109455206450    9.64001748270952   10.77273106108383
H        10.95838377342804    8.75550909217437   10.73640401113978
C         8.91791455081972    9.29702281280256   10.25580006494769
H         8.23915949855457   10.12791570533104   10.44284103079604
H         8.51880134916221    8.41092438014626   10.74591464112916
H         8.94510205672118    9.11014177905207    9.18283110039374
C        10.93860145817839   10.76346604018838    9.95223550932405
H        11.03054944811900   10.47940772537879    8.90483122389415
H        11.92679320167107   11.01406320682293   10.33745812157707
H        10.31147137437292   11.65311914051918   10.01809058029894
C         9.45187357617583    8.88629540808403   13.49772113475282
H         8.41617270257293    8.82434012443612   13.13954654592344
C        10.11615954665906    7.52244843931942   13.35797603306317
H        11.11962043260952    7.54535092578413   13.77718239058573
H        10.17181288088080    7.20480509753377   12.31911581580264
H         9.53918603497676    6.77803880534546   13.90649489228975
C         9.43409314092807    9.33699420077260   14.95600092645718
H         8.88644023095181    8.62936745484360   15.57661642785370
H         8.95818449276156   10.31588038227657   15.03490783452458
H        10.45053995060724    9.42497390331018   15.33797490740691
Cl        7.35067956701817   12.11879953518432   12.02692713262782
Ir        9.44532548252619   12.36730175823856   13.01064579242952
N        12.51502772943538   17.44943102652051   16.41639495513295
N        15.11997629459018    8.56210996890521   13.18541117266579
P         9.07097571893163   14.47004338833115   13.77113744414196
P        10.19427504109826   10.28491513620828   12.51103245387533

