116
CSD_code = FIQXOS | q = 0 | S = 0 | Stoichiometry = C56H48AuN2O8P | MND = 2
Au       13.00212348158542   14.21502294594588    5.12239433739409
P        12.03013680071885   12.19909451078403    5.38948254976230
O        12.63263102215614   18.61889870887006    3.58035198580624
O        10.65056649971409   18.36403005859260    2.55359208480460
O         8.47570386332999   16.09594166667270    2.56681719839622
O         7.90450243621482   17.87185885375980    3.80951287329332
O         7.32849128304315   15.21103754391694    5.41245702437735
O         8.57070380107232   14.11205152839530    6.92985148095768
O        12.38541349294383   14.66911124391177    7.67747147246547
O        10.46817913825469   15.32610205455709    8.63900894805561
N        12.93172391173885   17.16565076117058    6.12681192685251
N        14.11574444640385   15.93985157230859    4.59743440688226
C        11.69071376931404   16.68588356413553    5.65357310259566
C        11.00445731336846   17.17205112090502    4.51374305955610
C         9.71444011809845   16.61572746373372    4.54250905587270
C         9.59069900807461   15.81465664056932    5.68494152422614
C        10.83047186734870   15.85516983197785    6.38095647968580
C        12.91750380283937   17.81210344026165    7.37667059820798
C        13.92884714272052   17.57881589847724    8.30003964107725
H        14.72801491067669   16.89468669925121    8.05917927399195
C        13.90804245723203   18.19131074079271    9.54504488699375
C        12.84782165682378   19.02859186444950    9.86524003381967
H        12.81580231165234   19.50607649285877   10.83384735265376
C        11.82606054411615   19.24525312423717    8.95531076462408
H        11.00107938728370   19.89080343921972    9.21715258340262
C        11.85305566249591   18.64329491208465    7.71284458202481
H        11.05946606544740   18.80845964624066    7.00088820284596
C        15.02422919353249   17.93815068119985   10.51279845390375
H        15.24791858160649   16.87439819568310   10.56902639898231
H        14.77110737915659   18.29998060676175   11.50624086885741
H        15.92734805232135   18.44946773435892   10.17894913339209
C        14.06262281837256   16.93837674186934    5.43964574582343
C        15.20594866070766   17.84491245560141    5.67412409393646
C        15.01889570011264   19.20067284098540    5.54467058032013
H        14.03904273857140   19.57569071542953    5.29379617112616
C        16.09756646449485   20.08437839623114    5.66569307304406
H        15.92592933351768   21.14394342168440    5.54821320538674
C        17.35580157056794   19.60855356171347    5.90766397942896
H        18.19681534531911   20.28372336681324    5.97802753179319
C        17.58367871508219   18.22683508864812    6.07606333789792
C        16.49249101162375   17.32397734727602    5.98235395304763
C        15.12885654992514   15.86307580178850    3.63923869105248
C        15.75784226467383   14.64472291605779    3.39911530291537
H        15.46881006360544   13.78487278552516    3.99071321379571
C        16.74344516123600   14.52263491367342    2.43623645193054
C        17.09570306322952   15.64324929497356    1.69163086295241
H        17.86286340011443   15.56105502937082    0.93532887318283
C        16.45614481834531   16.85120941701872    1.90371082327034
H        16.72131946245120   17.71160876553136    1.30673295324579
C        15.47424011875927   16.97052972623188    2.86856798828173
H        14.94640647789192   17.89992669915060    3.01366691909895
C        17.42488918097835   13.20781116376693    2.19986133008483
H        16.93683597506874   12.41080634848120    2.75653971913466
H        18.46669874874603   13.26259682856505    2.51571350890516
H        17.41211268761200   12.95626332013594    1.14036784935527
C        11.53194600757068   18.10224792927289    3.54128227701034
C        11.09165058462704   19.26415977529665    1.55559367737159
H        10.31111102893285   19.28721281986327    0.79907352341685
H        12.03461910721893   18.92160974087403    1.12219134196160
H        11.24211810733453   20.26088150267976    1.97872797709765
C         8.65039944002777   16.80256983125576    3.52776993554362
C         6.81763230326659   18.11633070334371    2.93206251018691
H         6.39845158063733   19.07702728652510    3.22138987067333
H         6.07173860180290   17.32563824544222    3.03763400529394
H         7.16518497578774   18.14147127496917    1.89669015354723
C         8.39406287113732   15.05432728501464    5.96786500889317
C         7.41194923418972   13.37722725860541    7.28106077934510
H         7.59838610399865   12.94733041781276    8.26350862028604
H         7.22743728893827   12.58695509712040    6.54763391595831
H         6.54209914278251   14.03653027840009    7.31085910843155
C        11.29064879582451   15.21486915141167    7.60065635110521
C        10.94015989112497   14.82253986126980    9.87690691296652
H        10.07842403777795   14.77804720357298   10.53861761342706
H        11.69657516174505   15.49781270333786   10.28618344464324
H        11.38161850128633   13.83217417335094    9.74575590262516
C        16.72388092367676   15.95592146085012    6.23875042671611
H        15.88975276027291   15.26919427774367    6.24018711587742
C        17.98334879247565   15.49665977866144    6.50527274809486
H        18.14669434110504   14.44590439300228    6.69525935670900
C        19.07075257368162   16.38148828131414    6.54329856576060
H        20.06071828740760   15.99957832737416    6.74589104688246
C        18.87142674669635   17.71859823820965    6.34745157754402
H        19.69838016615458   18.41226464358890    6.40376286910485
C        10.34266407064350   12.08227794313086    4.74280691759964
C         9.53018268464026   10.98116658314895    5.00337820406984
H         9.88891157699200   10.17730316186026    5.63205782864044
C         8.25898429117326   10.93047956296585    4.46396132220866
H         7.62223887162255   10.08232431623675    4.67373440907291
C         7.79868182229140   11.96394920552755    3.65982600699720
H         6.80011754819937   11.92183986737393    3.25129137728750
C         8.61181264682234   13.04993582829136    3.38411434760687
H         8.26242220852653   13.86560696871935    2.77094923920014
C         9.88457072616444   13.10769413696701    3.92450843599036
H        10.52209886529949   13.95868614343135    3.72244803026166
C        11.95089878577550   11.59701475985678    7.09300617449166
C        13.11343496085699   11.09480685871318    7.67406140647546
H        14.01515687882608   11.01929986468978    7.08035772002877
C        13.10853168022899   10.69547200562633    8.99658446022711
H        14.00862958543346   10.30045086161044    9.44441764533181
C        11.94972671750676   10.80540576847957    9.74933542877683
H        11.94506752382360   10.48951103019160   10.78224167375401
C        10.80224615747736   11.33638536421410    9.18232565632227
H         9.90535901591791   11.43945828793060    9.77643821619473
C        10.80034812462275   11.74303200656303    7.85915037320707
H         9.91970972446467   12.18891764035059    7.42207164954742
C        12.85701009174709   10.84680502996803    4.49167201142181
C        13.55835330982335   11.18324064023959    3.33835608201571
H        13.61825286050200   12.22313412699941    3.04170441078278
C        14.17359684578470   10.19962828684282    2.58610694577683
H        14.72002814924998   10.46723309613811    1.69386602630155
C        14.09013066720274    8.87440072952655    2.98123947300155
H        14.57350973878548    8.10495504318501    2.39789586179627
C        13.38774414888357    8.53467206033697    4.12654051019711
H        13.32247472445699    7.50096623786978    4.43318330741709
C        12.76893697619384    9.51430015751460    4.88142549898675
H        12.23034093038149    9.24601399276556    5.77968826778973

