88
CSD_code = FIQYIQ | q = 0 | S = 0 | Stoichiometry = C31H50ClIrN2P2Si | MND = 4
Ir        6.19595690662221   10.25985038176174    8.05841212667169
P         6.05694628199501   11.58856832028107    9.87858255005026
P         6.03091853982586    8.86316855805500    6.29670340893100
Cl        8.29438690609961   11.03767397499781    7.39145270272055
Si        1.39055451627738    8.60492787410490    9.40647644940296
C         3.84868384792641   10.00313197772867    9.86873634407298
N         2.68118114103098   11.03904187488627   13.83374312996765
N         2.01885976339267    5.74378492641229    5.09991607701260
C         3.84522479413120    7.21268783184555    5.72536119930110
H         4.43874737582197    6.86409167810654    4.89746810458771
C         4.42121100184708    9.58748401889674    8.59176852974281
C         2.61730401986161    9.58778330398581   10.42061393295325
C         3.72284618145850    8.63557875578016    7.73039405108904
C         1.87933946620526    7.19268737022228    7.04874813009963
H         0.87900499626332    6.85093714865604    7.25931339124612
C         5.99958123400513    9.68204519379090    4.62188822012801
H         7.02341671383514   10.06081866334045    4.50432230951847
C         2.42910692575919    8.10768128067316    7.93132775555935
C         2.25052387096369    9.94152263623012   11.70815690503879
H         1.29917097669431    9.58072126250313   12.06381589293043
C         2.55810819065492    6.69976839605029    5.93271680676647
C         7.36916688213408   11.65964352762012   11.19280612695412
H         6.97279226205646   12.11567949655981   12.10789678050951
C         4.59868050976803   10.88366828076199   10.69061655098914
C         7.12036801078882    7.37069099086064    6.09277857375080
H         6.67913005791454    6.67826020769819    5.36536916117109
C         4.23562996912078   11.20988150952791   11.97802916366650
H         4.88330689644870   11.85158350534013   12.55164728904821
C         4.38545048228269    8.15500584091665    6.57185562273007
C         3.05252501990215   10.71893782944743   12.54647783633947
C         3.64521659713823   11.65412520745686   14.71413123402689
H         4.55608942767857   11.05193179810680   14.81689314680690
H         3.20536427128857   11.78074374826821   15.70072264263339
H         3.92118148702965   12.64432070680061   14.34366916294144
C         8.56620655319167   12.46118356127795   10.69214788128603
H         9.40304934641244   12.36432256135963   11.38299895948505
H         8.32479146232590   13.51810577738767   10.59607340422095
H         8.87987119421211   12.08979917342768    9.71811704306300
C         5.56899394666293   13.36628617746254    9.58107019269824
H         6.44301034354377   13.81370029872681    9.09048446788449
C         5.05644488952859   10.87654195054703    4.74137802335644
H         5.06851643050287   11.47588628916108    3.83226046509820
H         5.36577049463658   11.50568819051774    5.57796945723499
H         4.03692174344786   10.53926059201103    4.92698103365959
C         5.21220119871316   14.18034931372382   10.81844559209686
H         4.99479771437560   15.20819858543360   10.52863059150133
H         6.02885507032857   14.20043879460787   11.53682823623894
H         4.32585716169204   13.77113451540953   11.29889742828924
C         4.40943295599433   13.34992406824456    8.58824834364907
H         3.52048556446741   12.92435906347759    9.05192005510560
H         4.66588401147614   12.73302237630128    7.72493496188224
H         4.17720315756881   14.35676867973378    8.24448508586977
C         1.56118584876831   10.35684487269439   14.43507453654112
H         0.64454471174615   10.57658747631516   13.88358379424603
H         1.42834053891075   10.70917992125971   15.45556887922281
H         1.70237124380191    9.26937689922118   14.45835432437721
C         5.64406359478545    8.82387406011074    3.41396130179159
H         4.59166580247231    8.55035025018325    3.43675453190978
H         6.24717076067435    7.91950952430618    3.36745718241045
H         5.82211616399311    9.39224149085434    2.50112662557764
C         7.17041342760058    6.69935685294282    7.46265023896586
H         7.81209552754456    5.81959148434660    7.44395565368815
H         6.17207338325566    6.39972835434989    7.77991356096931
H         7.56299420552321    7.40249597322716    8.19825080480912
C         0.63605132815573    5.36484900207094    5.25435607694043
H         0.46092262664278    4.99087406138916    6.26442168705293
H         0.40273715493172    4.56258848930005    4.55728611744955
H        -0.05064401297648    6.19995580593714    5.06563778685308
C         8.51266286045513    7.79621404839962    5.63852996142785
H         8.87276292436356    8.61413952673130    6.26065221597193
H         8.50791895517091    8.13075788843339    4.60294463720704
H         9.21134183483013    6.96467011436038    5.72475026572866
C         7.75902795526186   10.21092268954682   11.47249995494469
H         8.13252746076700    9.75413270670470   10.55574796687735
H         6.89519636928870    9.63901318241012   11.81111731870945
H         8.53877577180104   10.15442866236700   12.23084700897012
C        -0.10105129292238    9.68833446811593    8.89662184739490
H        -0.65121491347096   10.03015796505002    9.76816361460151
H        -0.79151787715447    9.13541733867978    8.26686203524594
H         0.22132812138146   10.56554731291831    8.34411123078688
C         0.73071660483134    7.07663368007363   10.34438561416200
H         1.53922533301597    6.42297398149444   10.65634764417473
H         0.05833904613499    6.49605150284446    9.72061825246380
H         0.17807407428058    7.36773068622636   11.23210737259851
C         2.64213489544723    5.48660100654464    3.82381652714247
H         2.72792239173495    6.39429729742347    3.21392296338993
H         2.05014269196114    4.76026796068033    3.27174857542165
H         3.64011572387724    5.06530541586327    3.96446935798195

