68
CSD_code = FIRBUG | q = 0 | S = 0 | Stoichiometry = C22H40O2P2PdS | MND = 4
Pd        1.12663581614468    6.51696376261811   10.07631120241027
P         0.03272251063879    4.58021970351141    9.79833164529085
P         1.87209974989808    8.60933746507318    9.75878080533911
S         2.21274782018242    5.93115810291207   12.07908490563299
O        -0.88536391259443    4.79982783224303    8.46906969373649
O         1.20857874535256    9.07270938763837    8.34500117747699
C         0.15793461464997    6.93859579970750    8.40007266455998
C        -0.71474555652171    6.02181724809077    7.83322695556003
C         0.32984367492752    8.16267897756350    7.77340998876084
C        -1.40408380314357    6.30879423305457    6.66515409302792
H        -2.07684593754173    5.57950379970485    6.24133029774653
C        -1.29657462642487    4.21583852491597   11.06694958367761
C         1.13641809882510    9.89418535871919   10.91098940277277
C        -0.34646872005317    8.47865090397207    6.60528162379886
H        -0.19691606917136    9.43862713657261    6.13596160707158
C         1.10434090265732    3.14448318359301    9.24763642291098
C         3.68791880221666    8.82507548157841    9.32307043679987
C        -1.21080045437328    7.54151790879481    6.06144764895163
H        -1.74275356711372    7.77575486373179    5.15233279728204
C         1.62204156330522    9.65237935294629   12.33629735703571
H         1.47864289411325    8.60314458222922   12.60418787670068
H         1.04870618758548   10.26199574801066   13.03357437817141
H         2.67303850937255    9.90187310768749   12.45548923836508
C         0.30103030044273    2.01303386350709    8.61937477245933
H        -0.24690008648009    1.45832174380530    9.37786398460503
H         0.97087831689456    1.31964565609912    8.11201816501468
H        -0.40778344702259    2.40336853842817    7.89143899406159
C         4.55151463752504    9.03843896572808   10.56073904514629
H         4.40304302720519   10.03222690072034   10.97775378192199
H         5.60428144080092    8.93676371339472   10.29850225450689
H         4.32213360432473    8.29739891501212   11.32594702272483
C        -2.45446433295783    3.40143791457513   10.50189235764715
H        -2.84903808482677    3.86380006644155    9.59986906361088
H        -3.25494640860254    3.34415032387937   11.23864295622189
H        -2.14106731188212    2.38883411039946   10.26072696432024
C         1.39853026469903   11.32206413004278   10.45135598206154
H         2.43861974097292   11.59901342565256   10.61100836266011
H         0.77481195871338   12.01440424289670   11.01589643609318
H         1.16292011181641   11.43038205477431    9.39405928813262
C        -0.35977659591904    9.56085138809937   10.84821755424883
H        -0.77564807153127    9.79610056082497    9.86866892643738
H        -0.90969299608917   10.12587397777760   11.59934010076346
H        -0.50885005941736    8.48595565143698   11.04498088812575
C        -0.69734916027569    3.55167424634990   12.30082757659416
H        -0.48607393056547    2.50073569474685   12.11930786905146
H        -1.39679333845311    3.61579852603984   13.13350791880722
H         0.22577591310667    4.05152681877492   12.59194099262994
C         1.97000127396317    2.65493570928445   10.40336918492235
H         2.39515610313296    3.50296545366927   10.94209995197335
H         2.78874116404777    2.04562771152807   10.02265138752237
H         1.40046352184671    2.05295696899000   11.10535143867748
C        -1.75727247895283    5.63562784881740   11.42742159472099
H        -0.90951032958782    6.20006504845802   11.84831220125041
H        -2.55292629026484    5.60830731024463   12.17072134495806
H        -2.13172833013706    6.15668737401023   10.54085973335178
C         3.92539960165810    9.94017063002938    8.30973884922062
H         3.32244559192074    9.79062396810077    7.41756814392892
H         4.97493029732560    9.94665177684167    8.01743394641353
H         3.68230299414833   10.91266582096212    8.72975293076310
C         4.00368353173867    7.45878087652781    8.69720652365378
H         3.83863374721500    6.65996922273031    9.43637036860166
H         5.03998348008767    7.41086969361910    8.36532611087414
H         3.35598637636205    7.27915687111400    7.83276629283940
C         2.00855599395847    3.82158968329555    8.20845932467967
H         1.43146714037561    4.16134367378991    7.34700168231965
H         2.77456330675318    3.13174691668399    7.85706984051813
H         2.50872152425620    4.69205715568997    8.66643169767611
H         3.10802904469621    6.90066639133084   12.20941439022184

