81
CSD_code = FIRCER | q = 0 | S = 0 | Stoichiometry = C29H46O2P2PdS | MND = 4
Pd       12.22581351323936    5.77030423835534    5.55957187080932
P        10.72524987251404    4.10444018426513    5.67521401240277
P        13.19897972547827    7.79902523199336    5.75255024607541
S        13.82824246448085    4.59603255097518    4.26780144714453
O         9.43008402468848    4.75997108529673    6.41696764450949
O        12.07424521768491    8.71324418175653    6.50102029379679
C        10.76079200567611    6.73177153123101    6.49158317892089
C         9.55974168205533    6.09679386790127    6.76425967717497
C        10.88159600945180    8.07621773331726    6.80150902854248
C         8.50536522280319    6.76950069630449    7.36342102788249
H         7.58168502786211    6.25203363164212    7.57109710849908
C        11.13753037895329    2.73828880574673    6.89056794991891
C         8.66305100927706    8.10969962721594    7.67918813628915
H         7.84938666656474    8.64413223897825    8.14475915353179
C        14.61292777067187    8.05001755605963    6.96356081760757
C        16.03994995992650    3.10947088662750    4.75358506237305
C        15.90100692872950    1.73442202925921    4.89124671743958
H        15.13556520815984    1.33528335218968    5.54188217328320
C         9.84469746134419    8.77721000926734    7.39933822697382
H         9.96404242908108    9.82351787889814    7.63417035153822
C         9.95966112413951    3.58547156954228    4.04668980075529
C        10.85925517065180    2.60329020010727    3.30572172399547
H        11.89463689926652    2.94337000722617    3.33531804651515
H        10.55232607735915    2.53877805977232    2.26262923132083
H        10.79985310447782    1.60701081465423    3.73521513250426
C        15.12469984098928    4.05447347190334    5.45807211049821
H        15.67071836453079    4.94000472344916    5.78929664571748
H        14.64123487965475    3.57667040738731    6.31365278860258
C        17.02653699154171    3.60233993902300    3.90680174726079
H        17.13156423218743    4.67101046538073    3.78244872518184
C        15.96132967543614    7.81948772219695    6.29107732824169
H        15.91601147569335    6.96498340307700    5.61897099843038
H        16.72906203436962    7.62938230439929    7.04087770114812
H        16.26132001618963    8.69277041805616    5.71603261429515
C        13.34845891915339    8.71148998129831    4.12306511395786
C        12.14410309194632    1.77367579659217    6.27124359343053
H        11.64708092546328    1.01919498181523    5.66715195649252
H        12.70547201271816    1.26075256317424    7.05206502173672
H        12.84099305010810    2.31404077397334    5.63199213897570
C        14.32357235608014    6.94294015721200    7.98706161537192
H        13.34813755095637    7.10686825615338    8.45382440017318
H        15.08037149844101    6.92337061160258    8.77037405229997
H        14.30961889799627    5.96405657748582    7.49000024655164
C         9.90875724255201    2.00545656607364    7.41479968113680
H         9.15558470656773    2.71157485589228    7.75765319346554
H        10.18934280859836    1.36606266958328    8.25119085419419
H         9.46895330974585    1.37887975520770    6.64254024416615
C         9.95580998207927    4.92192649471522    3.29207706334356
H         9.39046397888006    5.68117794762675    3.84072738014243
H         9.50850462473305    4.80875259832828    2.30555229016561
H        10.99444298710784    5.26099544096390    3.16301556072598
C        16.73572625222040    0.87114562543479    4.20451150812501
H        16.61736507604635   -0.19662805021315    4.32300251453279
C        14.58533499278431    9.41308251383694    7.64749423286160
H        14.74477104159224   10.21620855986151    6.93300625254659
H        15.37619474689690    9.45817713655710    8.39563638526840
H        13.63335645223006    9.58101867966406    8.14472001169168
C        17.86019664742096    2.74061121255085    3.22010501514282
H        18.62309430422852    3.13805683926203    2.56598496444880
C        14.43453138765178    8.06704180816961    3.26728716716255
H        15.42974523537680    8.34148216298630    3.60559669348073
H        14.33113969141229    8.38844189013230    2.23176842639953
H        14.33833411686311    6.97905113921777    3.29731811975715
C         8.54419227346301    3.04203465429870    4.20101791044080
H         8.54886997597843    2.07262755963566    4.69340070943875
H         8.08903653463903    2.92115706457395    3.21875281078192
H         7.92848681576051    3.72282727681648    4.78459296102748
C        17.71845628046336    1.37105396292993    3.36838242923799
H        18.37005647487683    0.69641087333824    2.83212949013573
C        11.98480161634200    8.42002399605244    3.48325799592048
H        11.81778929966815    7.33048523898445    3.46021096806794
H        11.95282577247946    8.79224097177038    2.46030902350722
H        11.17685266301615    8.89069717901193    4.04526237427384
C        13.56355024063424   10.21037743483683    4.28849082344985
H        12.85493222857547   10.62163716867000    5.00513045799577
H        13.41837308507960   10.71295902394048    3.33284132949452
H        14.57390108398626   10.42438415866317    4.63060420667159
C        11.80837506103802    3.53595026753519    8.01884501222139
H        12.63678086491156    4.14142456965823    7.61324952271973
H        12.20737996019510    2.86988842712269    8.78315806882512
H        11.09121941599222    4.20979380333329    8.49189948885215

