69
CSD_code = FIRCIV | q = 0 | S = 0 | Stoichiometry = C25H38O2P2PdS | MND = 4
Pd       10.15438289571421   11.29622843512286   12.43871293527531
P        10.02843656515716   13.47414859529770   12.00637397129218
P        10.88730458829880    9.16634181902292   12.49361135719129
S         7.95508075631595   11.03723973170203   13.24677247704723
O        11.27061717063075   13.80143278943346   11.00246318360428
O        12.29910029580998    9.20225749724894   11.66844539906213
C        11.84345041123758   11.52405690851013   11.40629879717300
C        12.64383590073439   10.42780794381734   11.12376820454470
C        13.75616298433264   10.54113241744530   10.30250139867736
H        14.36880402356736    9.67607097262805   10.10165485243376
C        12.13365540121108   12.73284776920140   10.79031040236256
C        13.24013984853963   12.87590669550930    9.96734881169525
H        13.45269415717521   13.82877501297143    9.50843602392002
C         8.63924798186784   14.23579209340038   11.06960127286950
H         9.00241551527086   15.15263550642604   10.58949353696801
C         9.01625201351819   11.34703347426959   15.74530537517531
C         8.19674745688675   10.39675814304730   14.93613324956644
H         7.19233392101536   10.29724621461328   15.35772319491435
H         8.66394584240950    9.40887772263891   14.88024077768293
C        10.45550209014785   14.51210000351382   13.47790202477078
H         9.58598053026933   14.50594996657840   14.14231405436299
C        14.04936451759365   11.77342595949496    9.74061875690341
H        14.91341927825510   11.87252658645910    9.10186019665692
C        11.44560075663554    8.06294876775339   13.87623788911589
H        10.59395944720008    7.92768895938045   14.55184414384022
C         9.84025285560321    8.16665558858379   11.33524990603542
H        10.43242383241495    7.32467075166590   10.95481939488438
C         8.28173923387486   13.18813427325600   10.01558112355219
H         9.15160540817419   12.95246433539646    9.39850660476966
H         7.47959155721048   13.53619988831158    9.36762969969396
H         7.94958616909936   12.27509035982628   10.52162252474378
C        10.20052085639131   10.94276371226406   16.34988366573037
H        10.53038691801925    9.91946387549455   16.24111111635142
C         8.57769540827897   12.65527201502739   15.93416216975838
H         7.65543859221042   12.96893606992922   15.46471367646112
C        11.93438473047145    6.70834726906762   13.38122722822198
H        11.11664871972820    6.11112685700204   12.98465827472132
H        12.39165068081156    6.15759886923219   14.20219182918764
H        12.68021530063439    6.84406637913961   12.60095147573762
C        11.60436786482065   13.76291451974114   14.15588277160923
H        11.31384099117520   12.71148975933102   14.33302129710476
H        11.85631146842068   14.21351299341159   15.11395987567596
H        12.49210551636977   13.77710871339530   13.52070557093572
C         9.30310008347258   13.53358590223729   16.71577153589331
H         8.94443892735571   14.54213129107481   16.86739497753214
C        10.48377491787007   13.12175580954273   17.31406075118113
H        11.04750187243932   13.80693877218170   17.93083483171533
C        10.83237182178594   15.93797841758793   13.10091304497093
H        11.64850911949996   15.93406431678993   12.38079633406813
H        11.15463650653295   16.48694326247045   13.98440536218014
H         9.98710169456805   16.46220496953065   12.65970874833761
C         7.46251924391954   14.51537108239565   11.99290588642219
H         7.20431464700201   13.60469692434475   12.53326227522653
H         6.59526717875419   14.83023237353206   11.41516912548341
H         7.69910035034144   15.29699308385284   12.71207239531474
C         8.57819619332005    7.68326867278185   12.03690315126197
H         8.81231481518632    7.01962674211826   12.86772612902274
H         7.93748039717414    7.14657695649700   11.33928484009760
H         8.02320215044389    8.54219840888265   12.41741393906012
C        10.93229239993706   11.82644127220940   17.12575368372749
H        11.84935685901908   11.49701664617234   17.59343660914993
C         9.49026004788974    9.12038360385436   10.18992158331274
H         8.96025388683004   10.00183816711710   10.59552904146711
H         8.83806109130199    8.63293206421424    9.46660244884022
H        10.39225744349591    9.45489160676389    9.67111526076787
C        12.55453233516718    8.83582061718563   14.59177941925486
H        13.46749249515413    8.80333110209374   13.99995400784473
H        12.76324431587753    8.41095626720596   15.57222712390753
H        12.27081875851829    9.88647544885464   14.71310700103755

