64
CSD_code = FIRCEO | q = 0 | S = 0 | Stoichiometry = C24H34Cl2IrP3 | MND = 6
Ir        3.23443051634903    3.13205442803026    2.55688171823389
Cl        1.90297617253312    4.36210230040492    4.07762178801422
Cl        4.56943873483640    1.81266985497063    1.12113625324944
P         3.90751702488771    1.80369713857486    4.41523357245214
P         1.52514527057337    1.71342706351959    1.85953092515850
P         4.87113120510645    4.76699705978029    2.77692947347693
C         2.69765730332179    0.60963263639698    5.07499735345985
C         1.55561874842681    1.13675988244543    5.67445412296014
C         0.59991525927120    0.29730227820191    6.21653881321916
C         0.77001733039427   -1.07709182400050    6.15966852295164
C         1.89572352292365   -1.60670650397077    5.55210527972628
C         2.85656546665659   -0.76967144709132    5.00912982493976
C         4.30640175079977    2.62508918875174    6.00972281578604
C         5.41771792073003    0.79840150373056    4.18878397373641
C         1.07273974042965    2.06495876165181    0.13251853356631
C         0.10184320905150    3.01916376548129   -0.15458689404458
C        -0.21640685782801    3.31606074980864   -1.46693674064904
C         0.44082810708726    2.67517672997837   -2.50427250829766
C         1.42726245144157    1.74489028046284   -2.22366142039822
C         1.74610920392352    1.44148616188149   -0.91230706705090
C         1.79624028260914   -0.09778624384110    1.80240988140358
C        -0.09070021098088    1.80670509656327    2.71533242085003
C         5.69836690159922    5.12444687880949    4.35845022368962
C         4.98399207375765    5.80671066491470    5.34037399011281
C         5.56872560309058    6.08205129226550    6.56218726743887
C         6.86739933387790    5.67221736918431    6.82011929054702
C         7.57562840806848    4.97636355901095    5.85454834261440
C         6.99384326367480    4.69777481704365    4.62965565304400
C         4.25409751399971    6.43599895564876    2.34637771308809
C         6.25882016623118    4.60553370304946    1.60009151035513
H         2.78685568047278    4.00928526016077    1.37901701973865
H         1.41901979543321    2.20943715733464    5.69955294922735
H        -0.28065935034948    0.71503146242149    6.68284113951157
H         0.02525624987739   -1.73402004226590    6.58428226604805
H         2.02805514388886   -2.67793608908373    5.49934531261753
H         3.72483947660301   -1.19706665793299    4.52961336869930
H         4.29848800344874    1.88907053180931    6.81375564053083
H         5.28998955273600    3.08539499194722    5.94711582621493
H         3.56682643362313    3.39739832422141    6.21221740481963
H         6.24305175293538    1.48878066248964    4.01226014120895
H         5.62721312284169    0.19492639704028    5.07157355924647
H         5.31415689786246    0.17332378797538    3.30372768500132
H        -0.39492990803447    3.53939124242802    0.65106321102989
H        -0.97539902150354    4.05456749604151   -1.68175318651181
H         0.19246799408953    2.90975100814104   -3.52914513876241
H         1.95552837426173    1.25674913489586   -3.02974076731837
H         2.53554343596974    0.73701293236182   -0.70011233107475
H         1.04112830235580   -0.55449156543333    1.16304637863011
H         1.72112600859859   -0.50468173538723    2.80896412954900
H         2.78982269428166   -0.30219654755805    1.40841448574324
H        -0.86859984164353    1.35388169879006    2.10138388864574
H        -0.01062924218685    1.27793643372608    3.66378698551436
H        -0.33096631683183    2.84732014922793    2.92432675058940
H         3.96192908417808    6.09757449348036    5.14749022304202
H         5.01015559884035    6.61471058236103    7.31770357463614
H         7.32514752411244    5.88909341948122    7.77400477318148
H         8.58535754758712    4.64799863567288    6.05558690421817
H         7.55141287852418    4.14735641082992    3.88589918600673
H         5.01466296348980    7.18857403599396    2.55514778703090
H         4.00062999030314    6.43814834241861    1.28718951839760
H         3.35156666544586    6.64717098877031    2.91589758421525
H         6.96867228689780    5.42240950135397    1.72888871305893
H         5.83283347552529    4.63013469058027    0.59764120825353
H         6.75150132945905    3.64334676405370    1.72337917541593

