59
CSD_code = FIRCUH | q = 0 | S = 0 | Stoichiometry = C18H35BO2P2Pd | MND = 4
Pd        4.42278464699806    8.74657437115443    3.15517722323417
P         5.41281959887456    8.84263125570246    1.14705071674276
P         3.80357965925407    7.96378681762206    5.16893323818457
O         4.65847747062681    6.58852447788724    5.39823813254765
O         6.22404767319739    7.43402657832177    0.97339145102712
C         5.49337724013294    7.04383444352349    3.21009414270610
C         5.43791456090899    6.20195828747777    4.31569806868796
C         6.22294173470287    6.62439083004763    2.10278064124841
C         6.78087380027634   10.07187018621025    0.94657410327491
H         6.31527488873251   11.06248996091391    0.94391276791053
C         6.12423596365682    4.99747950006286    4.34359812596029
H         6.06704740366716    4.36519371142040    5.21585271956107
C         4.38933365322262    8.82381897763309   -0.38881673273979
H         4.99262829761247    8.44106598712660   -1.22005078638968
C         6.92004299035869    5.42602674301193    2.10547577519892
H         7.48507842966310    5.12908549402793    1.23572177908499
C         4.11560054435117    8.81419386866085    6.77816662969011
H         3.49959813097276    9.71920388408972    6.77506599053460
C         3.86653833471991   10.22362126374764   -0.67970357889223
H         3.41354795240926   10.64170693137459    0.22010531762600
H         3.11289853653881   10.19396538097158   -1.46523325396406
H         4.66750058252185   10.88691901816849   -0.99886180152856
C         7.58971427744668    9.84795335883322   -0.32435058772637
H         7.95209489764133    8.82203986315170   -0.36199937657410
H         8.44883957971236   10.51673743752161   -0.34375181792024
H         6.99100492589913   10.03593738440651   -1.21308517193647
C         6.86813863225102    4.62501330467965    3.23525495385818
H         7.40734405469559    3.69040909655543    3.24797200774029
C         2.06851523679415    7.31432522919467    5.17746594657898
H         1.95292304354765    6.58050023831413    5.98371686450072
C         3.77990563860668    7.93767085608972    7.97778292078651
H         2.71172108243693    7.74043743412112    8.03767859050428
H         4.08709486474076    8.43292875676592    8.89761125599948
H         4.30614877857389    6.98780757899274    7.90661611937964
C         5.58885156727727    9.21714866922553    6.74923647607366
H         6.22391718196272    8.33191906494276    6.78477412201404
H         5.83637248474690    9.85586310081109    7.59489767463394
H         5.80153293565280    9.76342528505663    5.82462362867763
C         7.63334780294595    9.92665690575613    2.20753636519524
H         6.98940542585743    9.97466070474089    3.09741207811598
H         8.37447325823129   10.72112506937864    2.27295019277162
H         8.15323154832941    8.96767775522092    2.20678911009814
C         1.09115448030518    8.47061649746678    5.33868396803978
H         1.15273447114756    8.90384350101953    6.33470584035301
H         0.06868264348009    8.13362825131916    5.17411993030286
H         1.32227549453746    9.25017195032435    4.61049756684493
C         1.89423271512622    6.62960768744562    3.82178216724688
H         2.11015893897059    7.35287006638114    3.01762382866439
H         0.87681399366886    6.26287880015332    3.69326729688068
H         2.58055563576658    5.78652311726903    3.72287330117780
C         3.24671679919875    7.85679052967965   -0.08237586011791
H         3.63624625970529    6.86382751381857    0.14939058498816
H         2.56158830013239    7.77251766866635   -0.92431002948914
H         2.68711222868563    8.22488944565539    0.78758843219385
B         3.96252965122111   11.25722365812254    3.53155026485872
H         3.44514842277241   10.02396996427768    3.04243338602119
H         3.93961877420105   11.96427800337908    2.57726194169795
H         3.18961058521128   11.55885159837106    4.38107471437382
H         5.08740129511619   11.06310668373601    3.95733064348781

