71
CSD_code = FIRCUF | q = 0 | S = 0 | Stoichiometry = C38H28NNiO2P | MND = 7
Ni        0.72067112887020    4.84072514366875    3.59769657865198
C        -0.67872618057447    4.56242198774406    2.44330497497101
C        -1.49976076942066    4.31221135786401    1.57853057602213
C        -2.43622663239511    4.05269082801817    0.56028599049862
C        -2.13621851931833    3.11727840298216   -0.42055553919245
H        -1.19179328649728    2.59535342144048   -0.37335002901234
C        -3.02915151824095    2.85618777573916   -1.45059179758981
H        -2.79277362832810    2.13035619822437   -2.21441783431651
C        -4.24269059432301    3.51965820516214   -1.52407339449891
C        -5.16735449636727    3.22639962042451   -2.62237597395487
O        -4.92403442946614    2.41419972501144   -3.49532081179629
N        -6.36235009330639    3.93350567034632   -2.62228815300834
C        -7.30881133427981    3.67378518796464   -3.69319658102757
H        -7.49950645522604    4.59429133217171   -4.24502162427630
H        -8.25029518089400    3.32002493032590   -3.27282830785639
H        -6.87768551320413    2.92028096384194   -4.34767005150117
O        -7.83160011011935    5.43229216113086   -1.79755909595180
C        -6.75468636330978    4.87852447418781   -1.68895722684089
C        -5.81092200771150    5.15591551111228   -0.59686824347572
C        -6.13307753149261    6.08639461940476    0.37066041887477
H        -7.08331998970668    6.59465779598888    0.30322757953252
C        -5.24341104051789    6.35947208541186    1.41103125221382
H        -5.51084827577492    7.09043874825117    2.15940958554037
C        -4.03844027057531    5.70589814644743    1.48378912115873
H        -3.34015371741960    5.90791345666269    2.28309366274680
C        -3.67808347497143    4.75063623823190    0.51607315564806
C        -4.57916607079218    4.47197980179146   -0.54031813653435
C         0.12212097406899    5.44760803154262    5.53910977749945
H        -0.65198986414638    5.08142538274287    6.19434283172808
C         1.47110034182187    5.12127239473885    5.57070707370047
H         1.95583684876448    4.46394786058635    6.27710725633361
C         2.16477502831513    5.97307190206450    4.63514872793468
H         3.24071298296059    6.03183699427677    4.54632215066166
C         1.24102724488281    6.84050703743311    4.05544974046382
H         1.45292075824354    7.68052427368930    3.41365736018397
C        -0.04766664962235    6.45300379477242    4.52721888990008
H        -0.96166358818186    7.00384819648852    4.35577637737032
P         1.83930130209246    3.20220194638785    2.78300021601475
C         3.63754733324394    3.21452965294776    3.07197162166650
C         4.52843271104479    3.64769457593923    2.09679149571449
H         4.16064401676640    3.92336142369302    1.11831304501154
C         5.88095024735050    3.72180885666979    2.38154878745470
H         6.57092183447185    4.05531636573420    1.62035579322071
C         6.34958305757747    3.37533015502056    3.63794817393493
H         7.40492992962329    3.43871833851713    3.85777391707522
C         5.46272635675129    2.95221745268686    4.61621154621769
H         5.82662183744487    2.68567320647628    5.59785071927289
C         4.11167401222139    2.87746169914860    4.33768487094929
H         3.41304002273807    2.55096391486495    5.09697256778633
C         1.71646562915194    3.01000993259598    0.97562113006329
C         1.76359323264517    1.78145271342149    0.33030728300988
H         1.86827455162514    0.87036036957782    0.90092890947659
C         1.65394409031404    1.72572683351499   -1.04918823576243
H         1.68038368518161    0.76873150477037   -1.54936327849330
C         1.50139791209747    2.88820948035424   -1.78654238166781
H         1.40739851632944    2.83657216864312   -2.86090972417217
C         1.45533068845039    4.11636938845185   -1.14485106418845
H         1.32694928670954    5.02232895139054   -1.71782298924774
C         1.55854176555549    4.17629235576672    0.23144028289835
H         1.49298647966151    5.12428564472701    0.75634335813852
C         1.33145296697308    1.58486043143163    3.43943127897883
C         0.05235405966423    1.48422376083474    3.97611120935318
H        -0.57443401534263    2.37248971456051    3.99557084239932
C        -0.39822305410668    0.27605638731007    4.47570077759105
H        -1.39149359719983    0.20048006338377    4.89216677150264
C         0.42930851867119   -0.83497332778104    4.44595056212890
H         0.08147037812576   -1.77859255045900    4.83929477437741
C         1.70758105491283   -0.73660354036768    3.91908016971972
H         2.35300201492062   -1.60268848966966    3.90192463317216
C         2.16310695858696    0.46892918910668    3.41629426920728
H         3.16547849403909    0.54796177246682    3.01733838640733

