86
CSD_code = FIRDAN | q = 0 | S = 0 | Stoichiometry = C43H37Cl2OPPdS | MND = 4
C         3.77840568163637    6.63794799006781   27.37530174913963
H         3.54790372166576    5.64206041140931   27.76904481142244
C         4.29451808692306    9.00948606891221   26.47129912571083
H         4.51353725343770   10.00532949396331   26.08691099457186
C         2.80277021781711    7.68843251849909   27.84207702137453
C         1.72518250351342    7.45517264683822   28.68359462175443
C         0.89475430211360    8.52265940630695   29.01476863762761
H         0.03872167112906    8.35690340703474   29.65322095438305
C         1.15749585877967    9.78849626560312   28.52081696205007
H         0.50232884365757   10.60640113057555   28.78158573068114
C         2.24666891050742   10.01986966896314   27.69229373901552
H         2.44279539212949   11.01090862036751   27.31022077161738
C         3.06948800445985    8.96275864427622   27.35567872941175
C         3.75925116522385    6.71749301543516   25.86899867894130
C         3.49155556172107    5.69350356428711   24.97702587335326
C         3.45991140800120    5.96122550302340   23.61296832134049
H         3.23341934528331    5.15906997793456   22.92716431756957
C         3.70971027911904    7.23641307601740   23.14368122746352
H         3.67708799169787    7.43173826595227   22.08248590638641
C         4.00491894340746    8.26311871331968   24.02829067622239
H         4.20537035798546    9.26005608796902   23.66471150220168
C         4.02603255843976    7.99698415050702   25.38244137525995
C         5.12745441961564    7.15527179715597   27.80457034434848
C         6.02155269678145    6.50300135253988   28.62688230076832
H         5.78547180956313    5.52762735668359   29.02404861836897
C         7.22262898089452    7.12488686948016   28.93629955526569
H         7.93169278925306    6.62353469963937   29.57797855876530
C         7.51503442233480    8.37983756050018   28.43154475825737
H         8.45413099867636    8.85337123756647   28.67724848804067
C         6.60662437592585    9.04230805347919   27.61727657874765
H         6.83190201336703   10.02677950579381   27.23346219008263
C         5.40992926964953    8.42815337886809   27.30954969116096
C         2.85853830888855    5.52597000236981   30.40178870714690
C         3.22489745215939    4.24854553722907   30.81286750924446
H         2.66948093611238    3.39549074643514   30.45005965791560
C         4.28732657632974    4.07837357764297   31.68266950135818
H         4.56443659979509    3.08382563623283   31.99982664511571
C         4.99237593523910    5.17594230940515   32.14742424677776
H         5.82580330487944    5.04117062078644   32.82146267963117
C         4.62380439917312    6.45035748727249   31.74936175163736
H         5.16715927849158    7.31089661763158   32.11128732135133
C         3.56196626538898    6.62883162358352   30.88156370074940
H         3.28500040014728    7.62773343898730   30.57526482132467
C        -0.01292584310872    5.83251535390708   30.31013868263763
C        -1.22488923177937    5.40398063895936   29.77119525914237
H        -1.26019329595026    5.02913687738527   28.74086570450788
C        -2.37501537542725    5.45093219476055   30.53779484696488
H        -3.31493181303636    5.11764973433679   30.12323510274487
C        -2.31984610994681    5.91847994782851   31.84144566044432
H        -3.21737517225056    5.94763411002893   32.44148558780763
C        -1.11549189000903    6.34236008651450   32.37981438718231
H        -1.07516457655507    6.70236664985058   33.39744147578998
C         0.03917348355832    6.30126418936426   31.61898564213597
H         0.98281831582526    6.62475565637260   32.03648140712696
C         4.52488027727666    3.68232675092320   26.56208004138573
C         5.80791350356277    4.07288042706819   26.21441213490170
H         5.97958789011705    4.62793290183416   25.30401944917284
C         6.86173695010653    3.75805597717313   27.05286192586760
H         7.85960937040734    4.07542864910791   26.78665098773038
C         6.65605482890571    3.04343631882263   28.22645698917578
C         5.36139724989812    2.64792674405854   28.54991745547350
H         5.18292336408505    2.09270284402722   29.45848105853631
C         4.29774515920167    2.96575668770323   27.72929887262391
H         3.28482758549109    2.67532217058228   27.99188199013231
C         7.79340932564183    2.71494282397549   29.14474276396563
H         8.73919618898775    3.05514867565826   28.73098078342610
H         7.85074297661902    1.64020400700570   29.31099050705728
H         7.64489960610419    3.19300681931285   30.11289058713885
O        -0.06063347271586    2.96148256440963   26.13290917434346
C        -0.42015898840606    3.41599795602985   24.83546186766366
H        -1.11776598273292    4.24688777915450   24.95257412473580
H         0.46952347137798    3.76580077041370   24.29279011841220
C         0.46413815516886    1.63886869086457   25.99344530767387
H         0.13974539999075    1.07278197034847   26.87029964317052
H         1.56207992418329    1.66978172459120   25.97786548338205
C        -0.09003666662994    1.07430905090772   24.67421507560065
H        -0.61709334334373    0.13517422952238   24.82802627655697
H         0.72177377355964    0.90273732082795   23.96826521777282
C        -1.01780872372334    2.18259162595795   24.16850406061991
H        -2.03572586993377    2.02461538389277   24.52659043273211
H        -1.03162343064791    2.26411071553273   23.08458472339451
Cl        0.91332061514153    2.55922799182443   29.08030343932804
Cl        0.40472094123504    6.14513883818868   26.30170583026651
P         1.45835822159438    5.74897129750637   29.24788201604384
Pd        0.91252208219782    4.33565798619495   27.62984748548118
S         3.13264183460494    4.02817883070316   25.50356106619615

