82
CSD_code = FIRDUG | q = 0 | S = 0 | Stoichiometry = C45H31NO4Ru | MND = 8
Ru        8.44725022231164    2.64988072791489    4.70055432390425
O         9.16191607857279   -4.97718397032831    5.84334691376745
O        11.06364484166555   -3.98241699222403    5.93554056139749
O         8.97866142785077   -0.10438639593465    3.68361190755988
O        10.91083298190109    2.91881623838204    6.37758208601557
N         9.85052628734129   -3.98709415696616    5.99159300425593
C         6.80663048309583    4.20818775525524    4.28471760137112
C         6.81963952204266    3.19574475475066    3.26650345213533
C         8.08397751038251    3.28384467346786    2.57647979488561
C         8.86839469422070    4.28944360857487    3.21034319714031
C         8.09395279639957    4.82826396750602    4.30585959791998
C         5.61440141527502    4.61229363701875    5.04011814558521
C         5.36539605323114    5.96034809043350    5.29591500032377
H         6.06281153460203    6.71072742745035    4.95450422354348
C         4.22101040460885    6.34558902080101    5.96848797280887
H         4.04326180646716    7.39386344766226    6.15807200145673
C         3.30537789144635    5.39743263885748    6.39234514168806
H         2.41282995675324    5.70205320475628    6.91792627365117
C         3.53901915086298    4.05675695469524    6.13512010388389
H         2.82841406464583    3.31079291409701    6.45896993970209
C         4.68134510377869    3.66398446986220    5.46499133976484
H         4.85823369126785    2.61390616567008    5.27680710077562
C         5.62655309676059    2.50274571427574    2.74174189115850
C         4.51652272092078    3.25222732798194    2.35571916214049
H         4.53538597523665    4.32820934762883    2.46045349985342
C         3.39962961129490    2.62556803330252    1.83616809907431
H         2.54467457850369    3.21614111807636    1.54161741198140
C         3.37780257876598    1.24855219082116    1.68963055362041
H         2.50422584241797    0.76171786811369    1.28274803456490
C         4.47860888825901    0.49828022147073    2.06771269021148
H         4.46693595903678   -0.57575606730592    1.95765559758032
C         5.59625585514155    1.11958780047153    2.59301511174819
H         6.45012146418336    0.53109521611825    2.90364068414522
C         8.45495174345273    2.56416812552088    1.34748021978708
C         7.56591016397567    2.48281666756279    0.27850383108722
H         6.59162422919700    2.94379314722481    0.35284432370239
C         7.93097456855819    1.82442951234826   -0.88157809953652
H         7.23194869661737    1.76613860153903   -1.70280390174350
C         9.18333887473435    1.24542300821677   -0.99175734895828
H         9.46365441476139    0.72994174616636   -1.89799774280468
C        10.07595485878912    1.32860769097668    0.06482197398088
H        11.05361730161080    0.87759137741442   -0.01434292802046
C         9.71676346682297    1.98270718415611    1.22656949047759
H        10.41153163739421    2.03774888347714    2.05665902729372
C        10.11812058724360    4.87392328210505    2.70313811316075
C        10.24845347191730    5.14705388205479    1.34218283798714
H         9.44126900869496    4.90250511786757    0.66665428031581
C        11.39868403957902    5.73862880943640    0.85521438166479
H        11.48661003389299    5.94133128909186   -0.20195920156836
C        12.42973861636913    6.07457486419010    1.71601287251634
H        13.32722701008545    6.53635715841241    1.33275080515118
C        12.30415703280491    5.81662139619229    3.07097978867574
H        13.10320274333706    6.07667145417951    3.74905447127475
C        11.15860568772186    5.22145627553655    3.56275858917966
H        11.07308129475398    5.01375059252340    4.62081092799012
C         8.47423627014104    6.02274832251924    5.08423679044082
C         8.81554264685115    7.20042995518264    4.42284071497060
H         8.79703271610924    7.23225469820578    3.34244398486367
C         9.16999204813751    8.32506252731613    5.14449694194095
H         9.43469051222960    9.23251281466173    4.62216640660408
C         9.18542126021405    8.28966800354426    6.52872009985421
H         9.46396165755006    9.16945462374588    7.08912438797753
C         8.84705164749833    7.12187759279573    7.19239359019186
H         8.86319573283788    7.08745885750911    8.27155573186926
C         8.49610311229063    5.99347448602119    6.47615657415996
H         8.25075580167153    5.07311451641374    6.99334931262911
C         7.41071623202900    2.08929518303261    6.41311350460409
H         6.81374165465335    2.92045575145664    6.80389410643899
C         7.20610618500739    0.92502462851941    7.02192039379498
H         6.44135580041945    0.84473546407916    7.79201398465354
C         7.89752159285610   -0.33562648557576    6.74822065976328
C         7.16367419108851   -1.51440988223773    6.58831620012317
H         6.08619576101580   -1.47858061896308    6.65123019710318
C         7.79659825278745   -2.70996168235576    6.32974638739227
H         7.24118619079662   -3.62446542861133    6.18730083591843
C         9.18589447242798   -2.74249587664422    6.25276697090561
C         9.93747912147353   -1.58726920668686    6.44010461091496
H        11.01403666922279   -1.64675669482122    6.39358738444403
C         9.29302220461231   -0.39299922462486    6.68376959260446
H         9.86592233021373    0.50612263101910    6.85804756891495
C         8.77211542561837    0.90411991860032    4.19144946569642
C         9.96238653869648    2.78599810703595    5.74294446997122

