51
CSD_code = FIRFES | q = 0 | S = 0 | Stoichiometry = C23H20CrN2O5 | MND = 6
Cr        2.41618486207185    1.63045988160711    1.55056723483996
O        -0.36863186629127    0.50190658439041    1.62773154438840
N         2.70586587874998    0.34216664466891    4.39248326384600
C         0.71428033929106    0.88356674914210    1.72162169315300
N         5.48497529882203    1.58660391777087    5.00876950714079
O         3.12305066206138   -0.67581154502073   -0.24932113347950
C         2.88737131964740    0.16146808234047    0.50255207999956
O         4.95989990579414    3.00549731568332    0.70543818622367
C         4.03926072923801    2.45211651868584    1.11617216985824
O         1.53474471708748    4.20478669527852    2.84187921607383
C         1.89105222955672    3.18509178369024    2.43867487008873
C         1.71530571155318    2.38065034743249    0.00989356794574
O         1.26165301630803    2.83480167320387   -0.94678162126209
C         3.25540230799151    0.68684413087255    3.25138005310062
C         4.66792449571250    0.36558738874188    3.09279793465231
H         4.93314644642787   -0.10937135196317    2.15697282126532
C         5.68728750130820    0.76694942978731    3.88818912375671
C         1.36097222115624    0.73025078271381    4.75526797623364
H         1.06061764406460    1.62009991958677    4.20481348578129
H         1.32600683154802    0.94332249186077    5.82439154827195
H         0.65347787680675   -0.07409824911065    4.53849744241277
C         3.31910092897843   -0.50719501510861    5.39736540866056
H         4.16421263068870   -1.04330510508148    4.97207275055220
H         2.58296924425288   -1.22861427082658    5.75410775970346
H         3.67292845487859    0.08080300441261    6.24651300448537
C         4.73731832407660    2.81437322640668    4.85706422644496
H         4.04278265879959    2.94728902442752    5.69011926533408
H         4.16939491782552    2.78337834244855    3.92777721285637
H         5.40288918560987    3.68379450109328    4.81505744487513
C         7.08334353517100    0.46285241810527    3.52363282542618
C         8.08903976129429    1.39818795444599    3.76034771194569
H         7.84419062775078    2.34678175885304    4.21459471750151
C         9.39660752774109    1.13015024021582    3.40426667708479
H        10.16370524388053    1.86726084397190    3.58999154085474
C         9.72409891164129   -0.07684726395977    2.80995763685623
H        10.74678453692029   -0.28682512369235    2.53483759108815
C         8.73313022868198   -1.01459387628240    2.57038567121476
H         8.98262731974578   -1.95923974207462    2.10994443493962
C         7.42433171040324   -0.74826905625104    2.92317687769863
H         6.66055437761892   -1.49242514576617    2.74760490573592
C         6.22692372997075    1.37976086674264    6.16365605383139
C         6.40734349399824    2.38659570735312    7.11512652888796
H         6.00660539804529    3.37431613703506    6.95494450574416
C         7.11700286389518    2.13901718900309    8.27546029030389
H         7.24811979607354    2.93676227997731    8.99208941065414
C         7.66087006405314    0.89153013847878    8.52240666891315
H         8.21735184411608    0.70630306471078    9.42807673583972
C         7.47410767764460   -0.11857064526091    7.59284288847827
H         7.88043821830713   -1.10278104345974    7.77402972138946
C         6.76028416452927    0.11446336194578    6.43635071573507
H         6.61269449448346   -0.69144296324065    5.73410785271637

