54
CSD_code = FIRFIW | q = 0 | S = 0 | Stoichiometry = C24H23CrNO5 | MND = 6
Cr        8.51696264940644    4.65646497560120    8.43348287703212
N         3.40113148656705    5.58187930558377    8.89737021471374
H         2.43852370965045    5.88595444073328    8.90374960562725
O         9.07729005057375    3.07434063970036    5.92368251307684
C         8.78282911241065    3.67055171722239    6.85979843147295
C         9.22175917591596    6.13095641661049    7.51334666795587
O         9.71639483145644    6.99373923078207    6.93923120568702
C         8.41293743589446    5.58609135017602   10.05223139387985
O         8.43077540800435    6.07391357381490   11.09488644437499
O         7.32901793379562    2.35795331377430    9.98865653481405
C         7.79294223590668    3.20447865210715    9.36221663318606
C        10.24606566249500    4.17096719307307    8.93078229489375
O        11.31500533794865    3.87901843076419    9.24143474198902
C         6.65195780400364    5.13961386432825    7.95764640661524
C         5.45797664463626    5.39874588758659    7.80776420614029
C         4.10870475126892    5.67972843135799    7.76542790434196
C         3.47270900162864    6.06335126505783    6.51406502700275
C         4.28419897396181    6.40596224232637    5.42587776415464
H         5.35680710156798    6.37554573395105    5.54974497245234
C         3.72516933097516    6.78073813975835    4.22192348129654
H         4.36432369978690    7.04528229740608    3.39325881827427
C         2.34668821887914    6.81803377516690    4.07450775607347
H         1.90850054373756    7.11153240009202    3.13273573211050
C         1.53176479080424    6.46990263792120    5.14002849945599
H         0.45787380681746    6.48694346388359    5.02578744360899
C         2.08409001599178    6.09624791454555    6.34938002286292
H         1.42240817478757    5.80527422343807    7.15341079211207
C         3.99340070368115    5.21994641415826   10.16763244520603
H         4.86128597972441    4.60785253225373    9.90449742239971
C         4.49932219174757    6.49140968572678   10.90047314838681
H         5.57768097081872    6.57511208200668   10.76034575861745
H         4.04402944403701    7.37279633033699   10.43930471203010
C         4.15256739246539    6.49403908721794   12.38400869102628
H         4.57344028707212    7.36803760055946   12.88155385950046
C         4.39982146797294    5.11067628836539   13.02646640158982
C         3.00764430106038    4.73572024890832   12.45397785518926
H         2.40625117362787    4.03701887235116   13.03681726654806
C         3.00892959575969    4.34502178681768   10.97558173175785
H         1.99233168585718    4.54513126958727   10.60686227865426
C         2.64728092004001    6.22979983551663   12.51867303600644
H         2.22984257944464    6.54321011457496   13.47073393343751
H         2.01548745959296    6.61317212526539   11.71821715905104
C         5.65990187126234    4.33922699449466   12.65793109050320
H         5.83208834772727    4.25629835671037   11.59261590991402
H         5.61685416241253    3.33671089293438   13.07933551333808
H         6.52154138051502    4.84693968045446   13.08818838416776
C         4.35710080129499    5.17597556092221   14.55477997045412
H         3.48663262574737    5.70713486075038   14.92626595851850
H         5.24596713283319    5.68006016883500   14.92827637507089
H         4.33925166067563    4.16876308685416   14.96647124257898
C         3.28284681182028    2.85998054881985   10.74335480694026
H         3.24649669882279    2.63142649530555    9.67990228410782
H         2.53093472823588    2.25786363588611   11.24867440390666
H         4.25915973690567    2.57606392760145   11.12152997591846

