44
CSD_code = FIRFAO | q = 0 | S = 0 | Stoichiometry = C18H18CrN2O5 | MND = 6
Cr        5.59392157118970    8.42449916048942   12.91344371630813
O         5.54784688686879   10.64791206471867   14.93989321060597
C         5.50387080117698    9.75696675618253   14.21143431187270
N         3.13914611706678    6.63199563743205   13.75399428759791
C         7.09872636660881    7.72555177649395   13.76853259660817
O         8.10409092269106    7.41371510470027   14.23687704767111
N         5.54835861846080    5.49888030026398   17.20631905553847
C         5.83042733651001    7.18691671992786   11.53715537398912
O         6.09864189758810    6.51678770268173   10.63729760845055
C         4.24110354864942    9.32721675265634   11.99763609225236
O         3.55699066758774   10.02273959663924   11.38380706721439
C         6.73570266492020    9.54036615234262   11.97965550322131
O         7.43676710706448   10.24912232060618   11.39913353648591
C         4.29718826015890    7.17516505572675   14.06615907905668
C         4.82023222260015    6.90338278621713   15.38545911074061
H         5.18900767242541    7.77146904631010   15.91571586424639
C         5.05218611234273    5.67783633532929   15.92919663449810
C         2.59186502087981    6.67236491470881   12.41690886308145
H         3.36467568176311    6.93697132265316   11.69852980750250
H         1.78143104465290    7.40316424563141   12.35302568887975
H         2.19340202323244    5.68789466163902   12.16451014238258
C         2.23196157734625    5.98391968775225   14.68250348022572
H         2.21957535771319    4.90233332573016   14.53212225755946
H         1.22405722385731    6.37004579965145   14.51793289578147
H         2.53095732945865    6.19101442548673   15.70752846657300
C         5.63595123408305    6.63879583023888   18.08560791108547
H         6.45479978167845    7.31911099877843   17.81832729538099
H         5.80848782652765    6.27793128305376   19.09950487945446
H         4.69702493908899    7.19029570885173   18.06864371574910
C         6.61434406121368    4.54082307202781   17.41362514342797
H         6.53591617457163    3.72714577225124   16.69773368970807
H         6.54184053489898    4.13185480488196   18.42278259043152
H         7.59767383764568    5.01281312405085   17.29865895404389
C         4.79324430279287    4.44138850517575   15.16721370086844
C         5.19073666692918    4.32842117647243   13.83772389978263
H         5.73053358697984    5.14319407156526   13.37437913304960
C         4.91335243475677    3.17966891105947   13.11963944024862
H         5.22761283344656    3.10542795562595   12.08934625627441
C         4.24277044883888    2.12610569862094   13.71963448386605
H         4.02654597018139    1.23004612351250   13.15736973515199
C         3.85734031104890    2.22296897514656   15.04715383455848
H         3.33987795039594    1.40183330243843   15.52135364372387
C         4.13121576648150    3.37043372689362   15.76780443573094
H         3.82499730561782    3.45180930737970   16.80062555912635

