57
CSD_code = FIRFOC | q = 0 | S = 0 | Stoichiometry = C17H24B2N8OS4W | MND = 6
W         7.14085186393036    4.98899264185963    9.21673409602382
S         8.15589038941032    6.29806042830719   11.10661708676681
S         8.72176549579983    6.28667778987486    7.75583667363399
S         5.63080171909251    3.84582766112190   10.77979499920554
S         6.23162632197220    3.83207134973045    7.25062978159271
O         9.20510474930744    2.73730398666491    9.57963661507129
N         6.22215491746731    8.09287758645562   10.31800007298825
N         7.27458157064914    8.57830141484908   12.18118930011451
N         6.63982804438893    8.08612667920704    7.85786963871269
N         8.24621403681793    8.56182812657260    6.44095289111656
N         3.39997214164889    5.15512620897875    9.85323209721609
N         4.16054927300532    5.87306953299180   11.77911533711969
N         3.82294550023038    5.14738228394969    7.37830873828899
N         5.17921383668132    5.85202334127749    5.80756035750055
C         8.42670883357210    3.56229805670067    9.44116329023747
C         7.18260956762666    7.68454574387524   11.16461393825041
C         5.70545596195922    9.25903223940316   10.81492080089940
C         6.34836474286967    9.56608732312224   11.96607164077965
C         8.19828893824082    8.46175560023638   13.27189221330255
C         7.82379210657358    7.67289833611545    7.37482244148253
C         6.31692504043136    9.24987834614011    7.21355371153040
C         7.30220106153436    9.55062859667295    6.33524304063278
C         9.47410742750670    8.43821011991238    5.71063979868636
C         4.35390417707313    4.98716545489093   10.77234288777040
C         2.60251131127458    6.17671515082711   10.27455368939962
C         3.06074088289436    6.62901288539629   11.46727898791936
C         4.94618870333946    5.95140663188473   12.97718642343637
C         5.02671767499798    4.97298363748977    6.82735985792718
C         3.21221972941661    6.16644787552888    6.71069927702507
C         4.04001334917669    6.61043653160270    5.73359539375481
C         6.31579583256646    5.92071842249563    4.93453325813448
B         5.79345461995609    7.44591301866430    8.98148970460490
B         3.19247274779748    4.32611034541616    8.54677670904606
H         5.93974804831374    6.25112028566151    9.00926596624265
H         4.64811150489130    7.71421238054865    8.78626503442105
H         3.75192881330991    3.28889645634487    8.64565605023594
H         2.02274855739815    4.25222175530414    8.34702799724578
H         4.91355762333256    9.77083150676893   10.30925522432473
H         6.22813313308584   10.39117445445847   12.63729107737143
H         8.06333833525186    9.30043972866079   13.95093534260014
H         9.22132240709558    8.45221071357176   12.89223086184018
H         8.03188158307400    7.52176425337245   13.80133166145963
H         5.40420601835512    9.76477643074837    7.42932208742365
H         7.41062580652766   10.37240852203230    5.65801361625313
H         9.59962414315352    9.30493254495163    5.06584408913348
H        10.31137120860080    8.36771224449841    6.40661533191289
H         9.46309609878771    7.52605569896954    5.11074381224044
H         1.76040677060842    6.49743529141494    9.69756113115665
H         2.70897668776902    7.40944788774079   12.11002031014119
H         5.94001982017799    5.54740302440864   12.77019242486415
H         5.02036519090773    6.98941988549702   13.30142638199185
H         4.49124052217258    5.35716884403477   13.77318867524417
H         2.22761593103475    6.49149595572891    6.97493467669139
H         3.92256487804173    7.38671443513708    5.00589661437589
H         7.18483937145693    5.51744919639341    5.45982175113475
H         6.49584870777642    6.95626043439084    4.64575249628512
H         6.14615626963588    5.32103472111302    4.03709263523699

