143
CSD_code = FIRHET | q = 0 | S = 0 | Stoichiometry = C62H76MoO4 | MND = 6
Mo        0.00016837185601   -0.00001552498733    2.85054707506771
O        -1.41112936871985   -1.00408125307938    2.59053932536258
C        -2.32637494100710   -1.87311945339712    2.16739177254338
C        -3.33637510787622   -2.30729582210766    3.05047301076066
C        -4.22771209585530   -3.27603343315316    2.62066794601088
H        -4.99163362706398   -3.63262436355349    3.29351031875960
C        -4.15954876257452   -3.78825390005795    1.33771354737534
H        -4.85809638175261   -4.54765624913578    1.02024800797602
C        -3.21112533738083   -3.30844455012397    0.45495048908702
H        -3.18559753837828   -3.69289096628394   -0.55348176176997
C        -2.28823768730008   -2.34709995413448    0.84012683516895
C        -1.28120242769944   -1.81185111213681   -0.15364107260447
H        -0.70711645075954   -0.99831313323050    0.33006866999844
C        -1.97910688772520   -1.22993183901986   -1.38575095417709
H        -2.68624492110063   -0.43865584026003   -1.10509577210792
H        -2.52158772309098   -2.00312455521163   -1.92436194151168
H        -1.24103629522056   -0.80071561150795   -2.06096098460464
C        -0.28174419923654   -2.89261178487305   -0.57709664501503
H         0.39043965572763   -2.49738492309181   -1.33644316049436
H        -0.79929359604154   -3.75444241853788   -0.99393673027558
H         0.31680874615508   -3.22000977885009    0.26994232603233
C        -3.43168576821100   -1.68739622343396    4.42618017990047
H        -2.94723680945358   -0.70325061186697    4.37312997744313
C        -2.67303299121384   -2.52013519706381    5.46252341643651
H        -1.60819378996482   -2.51948787053806    5.24480383039643
H        -3.03599899743142   -3.54631543588138    5.46410402253682
H        -2.82048859047999   -2.09866862783091    6.45481288498087
C        -4.87877656382683   -1.49231388752017    4.88371019778903
H        -4.90204492801754   -0.82206547374354    5.74066996103357
H        -5.32241707945862   -2.43800238854408    5.18586215268668
H        -5.48834673299028   -1.06327995423084    4.09235613680171
O        -1.06178848888440    1.58856671819318    2.31293391126049
C        -1.88849858192688    2.62205334542249    2.28989422233833
C        -3.13524116995196    2.50120808869165    1.63341247338369
C        -3.99643402436961    3.58106296928784    1.55291945672035
H        -4.93616483994344    3.46816163147213    1.03240762162667
C        -3.66299853588258    4.79388109522853    2.12309225287011
H        -4.34135434370758    5.63162155367668    2.06223803929809
C        -2.44338143288922    4.92641418050301    2.76060073699390
H        -2.17676162987121    5.88181897900973    3.18707208920063
C        -1.55088448845492    3.87163589054341    2.85976655871725
C        -0.21618545687927    4.07634694043401    3.53790131931385
H         0.26681240371616    3.09327534252013    3.61936321797976
C        -0.38027053284824    4.66635610286959    4.94053059344026
H        -1.06670852950033    4.07091893576927    5.53490026096155
H        -0.76556921252922    5.68157605016367    4.88755578521457
H         0.58033234300462    4.69952603258062    5.44947064749122
C         0.68549270437986    4.99027103037999    2.70247822431920
H         0.85144402268335    4.57490844157421    1.71293335995499
H         1.65361737105078    5.10526702281618    3.18570819981375
H         0.23222705203905    5.97320338217191    2.59267149288057
C        -3.50185917361163    1.18216714241031    0.96897706540390
H        -2.66497524990041    0.50303351649267    1.20198004795271
C        -4.78268792586591    0.58182379173358    1.54546464990983
H        -4.71129031619877    0.51832955433703    2.62831217073887
H        -4.94049970902171   -0.41929678511680    1.14798607678460
H        -5.64418993353334    1.19628202429653    1.29347695550713
C        -3.58480235662061    1.38607866078049   -0.49087331093264
H        -4.53061455121670    1.30922494950395   -0.99508236560714
H        -2.80455896097925    1.93854165049150   -0.98233295485621
C        -0.45260571605625    0.48382417149803    4.83644738505866
C        -1.15571299993607    1.26998133856772    5.82767761199970
C        -2.43440202975021    1.76278526364907    5.54862607706182
H        -2.87411398380859    1.57529221325594    4.57850423623631
C        -3.13138001371054    2.49296999141869    6.49169662316832
H        -4.12014298711627    2.86163628996646    6.26059813298862
C        -2.55881494984747    2.76560178150554    7.72433021588359
H        -3.10183864948751    3.34065923121447    8.45956568921701
C        -1.28105121493800    2.30650886427796    8.00418927317337
H        -0.82609197129725    2.52841741032384    8.95870831639443
C        -0.58513613364412    1.56309734841645    7.07089516130088
H         0.41060381714815    1.20853966441995    7.29055969568009
O         1.41148187160295    1.00396927682997    2.59037468035115
O         1.06203024843999   -1.58863624388653    2.31328560190273
C         0.45321858907518   -0.48352862569057    4.83640299630845
C         2.32650626498050    1.87336766830039    2.16749132900009
C         1.88759380353050   -2.62297319298711    2.28906586458353
C         1.15693610152822   -1.26953665115722    5.82730745829600
C         3.33579662607314    2.30842572881569    3.05095149264290
C         2.28885310157845    2.34691137178255    0.84005507392521
C         3.13401289477451   -2.50298743127074    1.63182621512094
C         1.54890780830635   -3.87266740434102    2.85807694675895
C         2.43548904930950   -1.76222333466362    5.54736820503089
C         0.58732924045801   -1.56253535818826    7.07100381923078
C         4.22676551879344    3.27760233591626    2.62134684687912
C         3.43101010627063    1.68921345857872    4.42697946070257
C         3.21131515342970    3.30875427943461    0.45511257147359
C         1.28278194179943    1.81069059132255   -0.15416732903737
C         3.99396785591213   -3.58372096046666    1.54992356362059
C         3.50186450143398   -1.18356286738457    0.96870895908681
C         2.44009254668384   -4.92840368328253    2.75731990911907
C         0.21465746093742   -4.07632314465102    3.53740968306211
H         2.87438736146189   -1.57483341844312    4.57685085709489
C         3.13329784165902   -2.49213791504717    6.49002952355302
C         1.28409732478713   -2.30564340985373    8.00390887900301
H        -0.40828751976421   -1.20806200815813    7.29137300549795
H         4.99003158657515    3.63490852488007    3.29455744769738
C         4.15897976808487    3.78942764650021    1.33823179619071
H         2.94591953170851    0.70534713635719    4.37472031320812
C         2.67324694690775    2.52318042083776    5.46297421312764
C         4.87815604599886    1.49352159374290    4.88414138920541
H         3.18602351742690    3.69298504834984   -0.55340573553590
H         0.70962265003940    0.99620316361187    0.32905172887217
C         1.98180053911289    1.23032593868184   -1.38637646865562
C         0.28204137583630    2.89025767954616   -0.57759317387451
H         4.93365682120628   -3.47131866617385    1.02922115616971
C         3.65944468295115   -4.79670633761953    2.11915018713087
H         2.66468043874877   -0.50443955146249    1.20082102625751
C         4.78170543661151   -0.58391200602987    1.54806861693989
C         3.58723941085716   -1.38606996391723   -0.49113921148388
H         2.17264086020597   -5.88385367998885    3.18319040024466
H        -0.26786664222504   -3.09299545881389    3.61841111761004
C         0.37995345559323   -4.66493840623686    4.94048830237333
C        -0.68825572662583   -4.99076671153966    2.70390396049993
H         4.12189266462514   -2.86080544130726    6.25820701745581
C         2.56171609885174   -2.76459592150241    7.72315797597723
H         0.82990959071334   -2.52746528793219    8.95881486046747
H         4.85710067995254    4.54929626024379    1.02094364708751
H         1.60833935559522    2.52293478153903    5.24565468441069
H         3.03676450500189    3.54916844770305    5.46359576669253
H         2.82086701219861    2.10244071205257    6.45554453354099
H         4.90130882393391    0.82374840870124    5.74146979659966
H         5.32246817918551    2.43911101745789    5.18562378965471
H         5.48721525636655    1.06369066420649    4.09282880695832
H         2.69033281881324    0.44035545812383   -1.10566324328609
H         2.52283514438588    2.00463231739306   -1.92490619625554
H         1.24456337299609    0.79973493866276   -2.06166450685571
H        -0.38873928098553    2.49469084203700   -1.33801080125931
H         0.79858874441256    3.75338453743681   -0.99302275394471
H        -0.31783801765242    3.21575636393590    0.26923325531880
H         4.33683254624678   -5.63515473231234    2.05722958848462
H         4.70766624126317   -0.52003858264323    2.63074285271336
H         4.94111920210979    0.41702065962815    1.15072520825463
H         5.64341307470774   -1.19907537810363    1.29839274633583
H         4.53397948982262   -1.30920939812612   -0.99361181627954
H         2.80825599291911   -1.93850465014910   -0.98433194556103
H         1.06653294648082   -4.06861273672108    5.53378992660955
H         0.76573420511179   -5.68001393191342    4.88820058297558
H        -0.58028687476346   -4.69801176640060    5.45012485096323
H        -0.85489345482996   -4.57654266341432    1.71399380799554
H        -1.65601447709953   -5.10462580673426    3.18814877372200
H        -0.23568923366295   -5.97410409791831    2.59489640315091
H         3.10534820746850   -3.33952011552220    8.45804943044553

