35
CSD_code = FIRJEW | q = 0 | S = 0 | Stoichiometry = C14H16N4Ni | MND = 4
Ni       -3.73046323518800    0.71122778404658    8.56620915646094
N        -2.02074887613174   -0.00100770872543    8.32365083930854
N        -4.15573218547831   -0.13415136253408    6.84038802849725
N        -5.56510743132204    1.07010540602617    9.07443730255056
N        -3.28258650548321    1.85756747542597    9.97981424239947
C        -0.85865659228203   -0.17016883818666    8.96045871793848
H        -0.65246195474524    0.26715822916097    9.92008192705870
C        -0.00617059145025   -0.98653824279706    8.21515764848641
H         0.98674944404169   -1.27975416177271    8.49690128679242
C        -0.68550373792350   -1.33500258925544    7.05968461682982
H        -0.34080170836139   -1.95942914597921    6.25809931459270
C        -1.94105579612983   -0.72179028143990    7.14850365725457
C        -3.10054023058650   -0.71925715762868    6.35821681274294
H        -3.11224107260773   -1.18738064981609    5.37464725367589
C        -5.32819046308064   -0.03408973935942    5.99485336232906
H        -6.00777364629960   -0.87074705264366    6.20127753467422
H        -5.02061266410360   -0.11343114141847    4.94369112393506
C        -6.05504640383704    1.29747301158007    6.22028376475355
H        -5.31797151615444    2.02447248912401    6.58043091528933
H        -6.45241361955918    1.66595332026453    5.27331586281668
C        -7.19997058612187    1.19971755620841    7.22764320189802
H        -8.02943803406665    0.63565463045912    6.79509630210377
H        -7.55729831782739    2.20784526322793    7.44845101963681
C        -6.78399331150882    0.51566700282458    8.53765589187356
H        -7.60021097293786    0.62201086012109    9.26639549501975
H        -6.62904443852420   -0.55335575924606    8.35958856769546
C        -5.62638679288417    1.82038594331880   10.13244215751844
H        -6.57860605110034    2.05904453145533   10.60438974013864
C        -4.41084489089264    2.30696360100644   10.63824267942188
C        -4.03948820549168    3.21457797596623   11.63702054362164
H        -4.70310405613786    3.72573566654012   12.30752367024674
C        -2.66053078854056    3.32287689120411   11.56267490196423
H        -2.02490369851031    3.93661908412698   12.17139891871853
C        -2.23784229545626    2.47683707422524   10.53605235429420
H        -1.22840877331721    2.33211003449032   10.19712118746159

