33
CSD_code = FIRKEY | q = 1 | S = 0 | Stoichiometry = C12H8AgCl2N10(1+) | MND = 2
Ag        8.36556437054303    9.08451506186805    5.15447212145611
C        15.58698220727979    8.34043794196134    1.66407677154666
C        15.97211327405437    8.73066690667553    2.95940920606984
H        17.01365368733801    8.84511790329149    3.21226601240364
C        14.96588331722168    8.95391746775519    3.87131501864193
H        15.14806367636879    9.25632861837290    4.89025084970196
C        13.66061796180041    8.76567625875041    3.40106772302055
C        11.26009770575802    8.82962829931133    3.90986712438056
H        10.92209750168016    8.54799145808257    2.93171850501551
C        11.43486473271897    9.39564459890999    5.94101746583017
H        11.18045818257885    9.66499468855038    6.94710767859848
Cl       16.75363622205779    8.03852611819632    0.46643374149846
N        14.31969340497406    8.18871683973812    1.31009234436005
N        13.37601164349653    8.39768963047000    2.16286776000249
N        12.55296072473605    8.96116572306173    4.23427045725176
N        12.66034186625860    9.31817265741200    5.51486563445035
N        10.51956309114760    9.09946564248148    4.97463970992155
C         1.14375672484926    8.34013088165730    8.64413943828054
C         0.75880465310607    8.73062221435196    7.34888424987744
H        -0.28269996301772    8.84510115835970    7.09594449166064
C         1.76514603922806    8.95399368703987    6.43712987623778
H         1.58304008591603    9.25620994777267    5.41808724317525
C         3.07037144991690    8.76577424412639    6.90751388391305
C         5.47091780805250    8.82958354295877    6.39889531647342
H         5.80882977428683    8.54797888045947    7.37708703313521
C         5.29634379622280    9.39557419009913    4.36772037616459
H         5.55084729485614    9.66493186952637    3.36165868826078
Cl       -0.02296303508701    8.03871429692239    9.84184505286030
N         2.41106044760330    8.18870767137917    8.99836965158690
N         3.35485308781387    8.39777338577384    8.14572740274769
N         4.17809838943843    8.96117835934084    6.07439113212853
N         4.07083866634980    9.31815547753126    4.79377713272397
N         6.21155121037915    9.09941437775296    5.33419090656540

