40
CSD_code = FIRKUO | q = 0 | S = 0 | Stoichiometry = C19H16FeO3Si | MND = 7
Fe        4.27930864777423   21.78048465953817    5.66046356377619
Si        7.26943026194776   21.23173483918568    5.44223651423570
C         6.29871802835417   22.35587450589033    6.63067630469974
H         6.43435922909457   23.43185385547602    6.60168810020684
C         5.47894742373408   21.82466068387061    7.60239812792833
H         5.61579957918015   20.79769989737967    7.91872514697444
H         5.03888801369442   22.46956267641883    8.35520116425541
C         5.79644479061783   20.41076078458601    4.57944517327353
H         5.65113273054351   20.51047757179072    3.50965919276665
C         4.92618885136123   19.61925962316096    5.29572353032016
H         5.23752787571400   19.19518562578712    6.24202925143442
H         4.16552155082486   19.04342981000860    4.78171611880041
C         8.36759741037261   20.00327055917197    6.37663655114619
C         8.89460271954315   20.31438225788367    7.62715966962206
H         8.64853147234186   21.26304765231638    8.08286689157613
C         9.72503553002049   19.42836036817331    8.28966602579933
H        10.12615733943028   19.68614547935043    9.25930067546049
C        10.04304984458309   18.21138550401610    7.71021401769788
H        10.69209920525319   17.51863252852372    8.22574123773864
C         9.52518734543969   17.88549781993433    6.46755217544785
H         9.77004371377799   16.93664306663561    6.01242323397777
C         8.69566580694642   18.77492067220103    5.80910417520267
H         8.29271531611203   18.51816879716398    4.83995783482923
C         8.25758521727199   22.26727566049329    4.21441653186844
C         7.61195361584167   23.20817009750984    3.41698857720427
H         6.54309831797190   23.33888928435817    3.51447260392974
C         8.31718429742064   23.97254799121551    2.50634179991929
H         7.80039681023874   24.69880977961763    1.89577985553761
C         9.68633188519995   23.80627152441880    2.37717470015102
H        10.23970238054959   24.40201567407179    1.66591339513647
C        10.34287646786566   22.87357841157390    3.16240184377301
H        11.41066358282976   22.74037854738605    3.06432001990342
C         9.63166847599618   22.11222182773442    4.07230834028993
H        10.14530278212776   21.38437858732124    4.68408992357541
C         4.26000615986585   23.50531276465003    5.32872007350398
O         4.14790672048825   24.62952526320188    5.10340268120971
C         3.31200972081462   21.83546239142346    4.21352270656105
O         2.66776189207195   21.94080226258431    3.26575202242718
C         2.95105627903038   21.32663637729354    6.77948706848211
O         2.03144270775297   21.15028431668399    7.43972317936301

