73
CSD_code = FIRNOM | q = 1 | S = 0 | Stoichiometry = C34H29N6NiO3(1+) | MND = 6
Ni        8.48419807245612    5.35572523319855    4.42176510877733
O         6.81986988195510    4.96009201263494    5.14480215288697
O         4.77377404974126    5.45370149831169    5.74875478105680
O         7.60579752455364    7.45524493749173    5.06568907731261
H         7.99886092269303    8.26910631042273    5.40343599790901
C         5.92248561053179    5.77611432438151    5.53132835770834
C         6.37180109783185    7.26076976164182    5.77407568009959
C         6.59931273429780    7.50070098988999    7.25798423509421
C         7.09831923792396    8.73979838044749    7.65110823316064
H         7.26801593427778    9.51544148717712    6.91416445109590
C         7.34220733571169    9.01137760415760    8.98410941561878
H         7.72147043645921    9.97984818900611    9.27353163696842
C         7.08253452860642    8.04913509065258    9.94543346268508
H         7.26280947220660    8.26330454783975   10.98771810135782
C         6.57313170455283    6.82104732506053    9.56386018174967
H         6.34944820873952    6.07335199861449   10.30980029581920
C         6.33555963194740    6.54438952562268    8.22758630087409
H         5.92270501195918    5.58884897318653    7.94480374596911
C         5.28493807941180    8.17360579216113    5.25267159071817
C         5.44980973569753    8.88222842875822    4.07087520285396
H         6.38084496774513    8.80918040404198    3.52582823291736
C         4.42909638060097    9.67980050486651    3.58519464486936
H         4.57002347850656   10.22993318869528    2.66598564474124
C         3.23315470892735    9.77140782093691    4.27457143452175
H         2.43591781446337   10.39181895051564    3.89448901776209
C         3.06397653382257    9.06376032743434    5.45319828180646
H         2.13231257527599    9.13068073994749    5.99357761961284
C         4.08354755625559    8.26978663314773    5.94462034782079
H         3.94933148012981    7.71381238431438    6.85836562234425
N         9.24239804432289    5.12787607849038    6.28241469752488
N         8.35485268838201    2.95830977669955    6.64344476225633
H         7.93794614853022    2.37585028258591    7.35840235741412
N         8.82030005562945    3.05838588523767    4.34195483576668
C         9.76925611831702    6.23498718550146    6.82499513529920
H        10.13057122393355    6.98146997260465    6.12808135627671
C         9.88537171207829    6.44724064125767    8.17804809970426
H        10.32042785339223    7.35722944108163    8.55473909086050
C         9.41482212930024    5.46063926612118    9.04248092307165
H         9.46907123883232    5.59419890412214   10.11102097723954
C         8.89445668738608    4.31104136984959    8.50510066700214
H         8.53070266921325    3.52049160591185    9.14304339183928
C         8.82898838917953    4.15269832133441    7.10588163864963
C         8.24181093169354    2.43510147311335    5.36991671172609
C         7.56173865849562    1.21867078677196    5.22330166073219
H         7.10034063399369    0.74683873628267    6.07693896685394
C         7.48596086959754    0.64439041868627    3.97345273538384
H         6.96352940982442   -0.28879898819775    3.83103853876108
C         8.10063699219863    1.28516087676433    2.90237566546624
H         8.07412427894647    0.86222485631590    1.91182851000518
C         8.74779516261755    2.48009787727201    3.14093191715060
H         9.25183520575590    3.00738311020522    2.34037999472039
N        10.13460267580723    5.77867217356109    3.62558962290937
N         9.12194773977794    7.45623115317528    2.31816897125174
H         9.28551776931970    8.31362119906462    1.80733969615330
N         7.58708459301063    5.72590669875893    2.71426999707448
C        11.25478249049571    5.16058921004863    4.01948087168389
H        11.11429211382721    4.25055293457201    4.58537544002773
C        12.51686284876608    5.63078646536103    3.72971856006885
H        13.38664322067872    5.09521643805188    4.07042494928402
C        12.63836034262015    6.81144204610744    3.00212199262590
H        13.60811829388670    7.22669771791399    2.77825784171232
C        11.49415494783222    7.42761098007590    2.55009494479180
H        11.54545265261644    8.32497972253169    1.95327853949909
C        10.24402957355648    6.86674326880853    2.85304487443915
C         7.89355601423623    6.86513355565006    2.09094923847016
C         7.01395999807349    7.47153617608742    1.18686952968694
H         7.28291932077324    8.40551789542405    0.71779917012912
C         5.80742606554712    6.86194752734146    0.91887962839331
H         5.10291328502747    7.32012080366826    0.24300137898253
C         5.52364841975853    5.64314426728866    1.52395773922720
H         4.60274213068505    5.12210912901564    1.32511338655368
C         6.43718338215632    5.11642699301198    2.41291825738099
H         6.24101031267532    4.18351240189275    2.92294387984137

