63
CSD_code = FIRPEE | q = 1 | S = 0 | Stoichiometry = C28H24CoN6O4(1+) | MND = 6
Co        8.79087239709486    2.66955504048252    6.82809070616907
N        10.08065136672035    2.78231440791241    5.42633154919645
N         8.70005281102810    4.46768395748750    6.66231242201695
N         7.87180442869508    5.09864628029081    7.45552430994715
N        10.12316045756889    2.57764072914934    8.19239040141983
N         8.73249011428336    0.87084123448547    6.99853015112275
N         7.88989270780287    0.22624187636861    6.23314000421332
O         7.49408162744770    2.96874207546878    8.15618515391040
O         3.57183447178361    5.99743447733839   12.04894620703669
O         7.45893972214639    2.34708398046852    5.53611033576556
O         3.51281438345793   -0.99001813014857    1.85418269250302
C        10.76410285862651    1.82579796234810    4.80625669115586
H        10.63728347751859    0.81613159342075    5.17261027407907
C        11.60317798397786    2.07979816308819    3.73652327546909
H        12.13290345672589    1.26798890445855    3.26686047014505
C        11.74062726790055    3.38793944957264    3.28419530841920
H        12.38504814942184    3.61381768521577    2.44920034771171
C        11.03622545376604    4.38909321203014    3.91963584513588
H        11.10741546874826    5.41653782052017    3.60146541865166
C        10.20275920039141    4.06492577528566    4.99440996272334
C         9.40763261917304    5.00801944487983    5.71759417227937
H         9.37428279884293    6.06400100552077    5.48996137993445
C         7.24474620567042    4.21798668000334    8.24661882612027
C         6.28850520597898    4.71120932807246    9.21704688240889
C         6.03017922238794    6.07991943786146    9.33431308795965
H         6.54684869925287    6.76409995593369    8.68083405508682
C         5.13068599521317    6.54772152600586   10.26586912262390
H         4.94929979182752    7.60816669124570   10.33645026587642
C         4.46134699201440    5.65217538034409   11.10794279743372
C         4.71799772536602    4.27647759673929   10.98596509423842
H         4.18981669552293    3.60273793071452   11.64139316029312
C         5.61419714926824    3.81430485446532   10.05812120636327
H         5.81248423222495    2.75811167450757    9.96047279234818
C         3.25264685628549    7.35962886162945   12.24445182199157
H         4.13196952266646    7.93537174135527   12.54697027487559
H         2.51789937393486    7.37467458892892   13.04724304115902
H         2.81516582678682    7.80025801228795   11.34424867597950
C        10.80989806029384    3.54475740446171    8.79219989474763
H        10.65745112654023    4.55213460777857    8.42941557340006
C        11.68285708394217    3.30431809154615    9.83752315426441
H        12.21362397427381    4.12432275390046   10.29158507999527
C        11.85291306842739    1.99875263219116   10.28638387895215
H        12.52459116580424    1.78332113550159   11.10241149148133
C        11.14528179427004    0.98678778443629    9.67228214034598
H        11.24059992735167   -0.03925678965186    9.98857076156393
C        10.27632743041424    1.29758836147046    8.62190026995597
C         9.47403005908666    0.34233833379903    7.92367648779442
H         9.45996837362287   -0.71331626668203    8.15452001279501
C         7.22554617723099    1.09346962515641    5.45860794831814
C         6.24699717110427    0.57528770099146    4.52406205159248
C         6.01153171652593   -0.80418816177115    4.42913069244004
H         6.56191525044495   -1.47138821107525    5.07183409251488
C         5.09503247288698   -1.28572353259408    3.53161268425247
H         4.89896752284661   -2.34206681140120    3.44164881043900
C         4.37882280878268   -0.41097845208525    2.69712299498578
C         4.60830223742383    0.96561775355086    2.79598333880064
H         4.06931435101859    1.66012465879127    2.17170618775707
C         5.53010916253124    1.44615472154073    3.69900359941033
H         5.71042958459845    2.50735866263341    3.78028340727602
C         2.74543494170483   -0.19051825139281    0.97850720847362
H         2.09852011699875    0.49719356727894    1.52991893728693
H         2.13111235876624   -0.88663399087606    0.41071837495275
H         3.38287934558426    0.37338146675705    0.29179274244306

