36
CSD_code = FIRPOO | q = 0 | S = 0 | Stoichiometry = C14H14ClN3O3Zn | MND = 5
Zn        2.10574554272851    9.07863929493841    9.13183080680766
Cl        1.49667194561802   10.18933524275833   10.91232819323732
N         2.65241957413347    7.15316103540556    9.98516341039004
N         1.77016788104302    7.81502517428454    7.59997389010599
N         1.37091400699649    8.34435162489583    6.47054829052412
O         1.82086381886183   10.35557551662150    7.48135152972292
O        -0.91592096919902   12.21030637530006    2.05500128795931
O         4.12499419121500   10.07506459339775    9.27530528567852
C         3.03492355075044    6.85954773878742   11.21377260864779
H         3.13363463887915    7.69929749591376   11.88680772584707
C         3.28962895766267    5.56140889352531   11.62708361618661
H         3.60349091796444    5.36278555492799   12.63878303116814
C         3.13219096172703    4.53195828078205   10.70712014470653
H         3.32312269378045    3.50799924528146   10.99244858407803
C         2.72325685446355    4.83524748077424    9.42384910903776
H         2.58145040469037    4.06395644682068    8.68285978668998
C         2.48259616367226    6.17145990807389    9.08557089172259
C         2.05036418459590    6.57019942183045    7.77194289409908
H         1.97683556751436    5.84116204353936    6.97201084886248
C         1.35114524359995    9.69011943626290    6.52474799496124
C         0.77359739245770   10.35917242843137    5.35402077818108
C         0.64417757560163   11.74549140172766    5.34790603636832
H         0.98164677327822   12.30124993065860    6.20976871269150
C         0.08628829693581   12.40312396138462    4.26985914008394
H        -0.00415610690443   13.47761706796742    4.29797155828423
C        -0.35329912554177   11.67445112856818    3.16650163393987
C        -0.22107633475617   10.28061682436923    3.16863510166105
H        -0.56721994576618    9.73729079356787    2.30346110462299
C         0.33199078617910    9.63180997505330    4.24599933103060
H         0.43563039789966    8.55910433570976    4.25573969531354
C        -1.09465111246240   13.60553012923972    1.98824597084925
H        -1.74949810608675   13.96487192605920    2.78816621453150
H        -1.56557118671718   13.79583052788238    1.02514240067135
H        -0.13819001893261   14.13572888545863    2.03394945801894
H         4.09467861925788   10.73357132430151    8.57185871503561
H         3.94485596485439   10.55793855550729   10.09457421828715

