81
CSD_code = FIRTEF | q = 0 | S = 0 | Stoichiometry = C18H54Si8Zn | MND = 2
Zn        9.20306381166656    5.86845031507458    5.81345057607443
Si        8.45641028625720    5.71805169377224    8.21695864752199
Si       10.25844513617963    5.34118617443528    9.69925597923138
Si        7.56568931218640    7.88744647363216    8.54018729871076
Si        6.77762410049009    4.07534371354885    8.48187884828108
C         9.72466544250797    4.94388712061796   11.49204799809493
C        11.30543441277483    3.87424416047241    9.05604395824734
C        11.41783855729898    6.86131527421131    9.75721728506732
C         7.46545208960560    8.53170888026609   10.33740135181495
C         8.69659116047067    9.07585611108697    7.54890636526115
C         5.82510443109165    8.05006165524409    7.76325444483502
C         5.57220967125014    4.38922111045788    9.93303638267846
C         7.52611907105005    2.33297602636370    8.72493422532322
C         5.75451340137663    4.02071456906260    6.86427221922776
H         9.10330262241030    4.05411185672972   11.52121174423442
H         9.14467045382085    5.75954220298062   11.91258869695798
H        10.57345713204317    4.77206799792798   12.14893949658464
H        11.64601980768597    4.05808878512243    8.03990340629974
H        10.72241120046816    2.95915804096033    9.04170424627757
H        12.18463572007127    3.69123510537814    9.66762098210503
H        11.77361308734384    7.11384149334701    8.76237783992175
H        12.29030273309671    6.69177787510125   10.38215656503290
H        10.90086577105795    7.73163430869263   10.14869478125460
H         6.81063149333113    7.90551943159761   10.93551204711228
H         7.08676111388932    9.54911214662922   10.39270988283682
H         8.44412393012820    8.52077822613811   10.80701794015661
H         8.78520264865957    8.74626509536713    6.51231537547681
H         9.69722081678759    9.09822483435461    7.96897371495218
H         8.32707969148223   10.09723109765891    7.53508792670659
H         5.10416630393409    7.42753376115981    8.28310381145401
H         5.83815741489944    7.73403798798022    6.72374485314656
H         5.45327427255892    9.07062638142629    7.78964775768339
H         5.07305824978352    5.34669565570361    9.82178801557826
H         6.10397643523222    4.40838311106206   10.87932068532475
H         4.80268776480427    3.62490901326627   10.00491444192006
H         8.19770233792850    2.08260357314752    7.90943595568980
H         6.76398624836799    1.55965993065104    8.76874872883890
H         8.09760435874824    2.27953265163373    9.64616918607768
H         6.40253957872086    3.86997209876382    6.00281829816444
H         5.22353994584177    4.95503588682453    6.71144416487266
H         5.01724976232016    3.22284415750213    6.86204043559584
Si        9.95004550415274    6.01886255849934    3.40974694806698
Si        8.14789101717520    6.39562129932019    1.92742133932189
Si       10.84082922075580    3.84950292276999    3.08692487820936
Si       11.62869532941205    7.66184452666969    3.14508085010179
C         8.68192074607049    6.79293484520046    0.13470339642987
C         7.10077509075943    7.86250469755192    2.57059488053633
C         6.98868343886348    4.87533990356734    1.86942546509393
C        10.94119955710104    3.20523386514319    1.28973040113008
C         9.70991796125458    2.66115274426996    4.07827207455657
C        12.58140284348702    3.68712900295990    3.86392187763504
C        12.83413944287952    7.34797184343675    1.69394784310255
C        10.87999549292106    9.40413119754821    2.90204830120511
C        12.65168369624124    7.71641651570689    4.76276988626279
H         9.30319757474608    7.68277553349529    0.10559648794433
H         9.26203135902266    5.97732050024973   -0.28576421624728
H         7.83318150495347    6.96465814069484   -0.52227190318803
H         6.76007836883858    7.67859045181503    3.58668811864797
H         7.68373411455253    8.77763601591934    2.58500950105546
H         6.22164247698096    8.04543690118665    1.95889704575956
H         6.63283875536437    4.62283621788349    2.86424804403030
H         6.11626723095206    5.04484085327185    1.24441562018715
H         7.50573549674584    4.00504072784130    1.47799422718776
H        11.59600689081570    3.83144098062371    0.69161836048079
H        11.31995736836680    2.18785738397477    1.23449330244779
H         9.96254839685646    3.21607616593507    0.82007052076604
H         9.62122793497304    2.99084047747158    5.11482866919946
H         8.70931993645863    2.63861648060228    3.65813269846084
H        10.07956268567889    1.63983222178375    4.09221782551413
H        13.30232222501358    4.30969013687024    3.34408222738970
H        12.56828549653701    4.00318299573320    4.90341953127722
H        12.95330245574496    2.66659327570352    3.83757716779731
H        13.33331689848674    6.39050351600383    1.80518870967502
H        12.30239020649038    7.32884704747837    0.74764872028205
H        13.60361690026692    8.11233182709377    1.62216103490664
H        10.20838164559365    9.65442159181637    3.71755211364699
H        11.64212122766606   10.17745507490326    2.85828526525332
H        10.30854664532257    9.45755020071677    1.98078447095111
H        12.00360704042115    7.86714222821947    5.62419105008056
H        13.18270337209389    6.78211981323964    4.91561520218841
H        13.38889467039932    8.51433133152345    4.76499550204093

