44
CSD_code = FIRWOT | q = 0 | S = 0 | Stoichiometry = C20H21AuClP | MND = 4
Au       -0.26908080846334    4.66501313770616    7.41692336823258
P        -1.84592939015462    3.95305002730983    5.80790782972835
Cl       -0.20724650554264    2.44426548854234    8.10307811284764
C         1.09259998252725    5.27548901180926    8.79607343206924
H         0.77266942355074    6.16985029027639    9.31748451998107
H         2.05032190571142    5.47744004150732    8.32944428485518
H         1.23074314919070    4.48346547148948    9.52256960417248
C        -0.31634103123560    6.58834514027151    6.76704524122737
H        -0.62107135442212    6.60733747423055    5.72298946277706
H         0.63762726405789    7.09355129080787    6.84886167722744
H        -1.04572166270914    7.15616830930233    7.33410010057909
C        -1.08807515231453    3.58759693141623    4.20392528167645
C        -1.79962013831751    2.91714821912143    3.21005039789364
H        -2.81548242787450    2.59692440403030    3.40061593781542
C        -1.19860586994521    2.65873108474119    1.99295372835717
H        -1.74917310920044    2.13969803050374    1.22208543833280
C         0.10865207827135    3.06032394218057    1.76178284191111
H         0.57478000720746    2.85190979696274    0.81029725429162
C         0.81928142184152    3.72037092682437    2.75019399183768
H         1.83977711062834    4.02533564581535    2.57243903425650
C         0.22363174702930    3.98478312752598    3.97125323477211
H         0.77413523544043    4.48961806265247    4.75479195107945
C        -3.07529505335815    5.24187229538635    5.46244140052968
C        -3.67608755764998    5.81789647168103    6.58123252249928
H        -3.39332030251124    5.47065050149224    7.56852501075780
C        -4.60965799327205    6.82418618661385    6.42728840348333
H        -5.07773177877244    7.26505841696733    7.29510846165706
C        -4.93512737251316    7.27314213140892    5.15649440894926
H        -5.65999153657917    8.06399166492478    5.03395051931507
C        -4.32391139798662    6.71711786655332    4.04521205702716
H        -4.57064395764329    7.07645350258950    3.05693918156980
C        -3.39250321756893    5.70343541995604    4.19179875062660
H        -2.91159797145517    5.27764859069779    3.32255039815739
C        -2.83526420592751    2.46827411378338    6.12094916295251
C        -2.19222066605696    1.23848604461512    5.98635966216102
H        -1.16108845251006    1.20631642329999    5.66375350509063
C        -2.87147372447608    0.07354080154762    6.28246484566710
H        -2.37094374890757   -0.87804873567876    6.18404125596340
C        -4.18695491896523    0.12657368050014    6.71663409940777
H        -4.71447046441288   -0.78565468137542    6.95327839643962
C        -4.82426859912916    1.34809203041312    6.85363952277992
H        -5.84868738396269    1.38996554697033    7.19429584104528
C        -4.15191333666344    2.52238876704633    6.56367992453148
H        -4.65311823495322    3.47399710558169    6.67579594346434

