74
CSD_code = FIRWIP | q = -1 | S = 0 | Stoichiometry = C38H30ClFeN2S2(1-) | MND = 5
Fe       28.30841910392314    4.80235215874341    5.15512899353442
S        30.40073362425431    5.57859871920342    5.26549750365754
S        27.84311494883462    6.97544478064185    5.39230524606700
Cl       27.57633573272057    3.91099368285943    6.97205658706106
N        28.94312224859284    3.16194924111851    4.42166728726052
N        26.79713803029016    4.39657640619706    4.10433002483228
C        27.00837350119203    3.43404072703955    3.14804262489652
C        32.44942713000163    3.83463217832595    4.45367170294930
C        32.41261783863516    4.73497394074110    6.77673331459171
C        31.58400256711760    4.20134373518565    5.63851342046056
C        33.43597030808774    5.63705679334607    6.48847993283278
H        33.61490703040779    5.91364740239344    5.45951096476519
C        28.23170975777253    2.71423492145663    3.34301687841280
C        26.08299306608770    3.18283606996402    2.13389210176308
H        26.30698655895807    2.44418013382116    1.37999880439756
C        25.01342009360288    8.11644335835626    7.17611346258734
H        24.75600672843855    7.10809081187690    7.45899779521704
C        26.05692497756877    7.27214191099056    5.01421009040767
C        33.61435156503148    3.10419632241437    4.66877122175598
H        33.91510606578237    2.86941823140398    5.68086006110635
C        25.58861107719741    4.99829492064123    4.11770066827491
C        25.65971093325660    8.36374635428617    5.97041337908211
C        30.03440998707039    2.46736727403369    4.78974150028045
C        26.42405695856669    7.66078411974490    1.24518100678076
H        27.13240957069974    7.40490263050469    0.46940785316139
C        34.20427256463040    6.18644541574449    7.49496557583620
H        34.99400441316879    6.88316979446819    7.24817027901334
C        32.07769152285153    4.12280845262447    3.14855887524520
H        31.17532491626434    4.69138225505650    2.97621932405828
C        32.16661766057374    4.42018136967842    8.10816399880703
H        31.36363359176544    3.75055249869114    8.37243264851692
C        25.81930506267902    7.67825655512167    3.57605819710673
C        33.96262556224346    5.85153592434642    8.81750378632897
H        34.56328809511155    6.28037663227744    9.60808808655290
C        34.38975315978301    2.68234177544876    3.60518188720591
H        35.29411806376656    2.11797950773878    3.78979203806912
C        26.71547413857445    7.36468253766547    2.56404638746984
H        27.65008561827146    6.88460378018352    2.82232393061331
C        25.04286243392871   10.45808841039552    7.71652166906735
H        24.80019544436635   11.26766460695719    8.39146413601162
C        30.76064995585777    2.95069087915212    6.00381030399197
H        31.42153580331259    2.16841061312094    6.38537951506326
H        30.02166897353807    3.21773479698177    6.76291857908239
C        24.61999582279194    8.29648266080686    3.23623452235119
H        23.91049457111138    8.54373544882000    4.01431449078638
C        34.00917807310955    2.97606099700321    2.30644166553562
H        34.61445679476041    2.64336560661787    1.47414661458256
C        25.30490875310157    5.94631221529616    5.24060574065356
H        25.65647798252670    5.49755470925357    6.17247651274332
H        24.22967668192974    6.13390072066959    5.29808876054453
C        28.66844264107291    1.63433532146227    2.57276665118638
H        28.09622843878448    1.32568638245643    1.71181687466459
C        24.63879981776887    4.77352184489127    3.14535470259780
H        23.69682161472038    5.29881223322801    3.19294761374622
C        32.93634701130476    4.97407681884961    9.11667279512685
H        32.72797273593211    4.71728702815921   10.14639852674167
C        25.23013585546252    8.27835356273228    0.91673465956058
H        25.00056221938664    8.50945335871498   -0.11464385920792
C        26.01218693013308    9.67806839146154    5.66687044180280
H        26.54402383317103    9.87777130015228    4.74805870859836
C        24.70751625936620    9.15532753864235    8.03818479172907
H        24.20401292752570    8.94203919531848    8.97148954333098
C        24.32960333078181    8.59805608966713    1.91875278942061
H        23.39317389137540    9.08033281298910    1.67150017893396
C        25.70567854474823   10.71334332528744    6.52696235636535
H        25.98786953617872   11.72572825520112    6.27104739601229
C        32.85011529881579    3.69765581057402    2.08299466354704
H        32.54337918956309    3.92992189186121    1.07251582538580
C        24.89337581519447    3.87153318605713    2.10995115475758
H        24.16351226447696    3.70443164262615    1.33196387220113
C        30.49874143410072    1.38531217604558    4.07118469316041
H        31.39049185841100    0.87228164772438    4.39805811127832
C        29.81842731763968    0.96771132118309    2.92668046339533
H        30.18072616997815    0.13229387529603    2.34588709429544

