44
CSD_code = FIRWIN | q = 0 | S = 0 | Stoichiometry = C20H21AuIP | MND = 4
C         4.75729333712736    7.59987605797579   -0.44730496538474
H         3.89653366915536    7.22053401123913   -0.98952459689017
H         5.52441414084715    7.84777080084293   -1.17342110004185
H         4.46079632876652    8.51657214438466    0.05185481853036
C         3.70847824755527    6.53388746666537    1.89898162269727
H         2.95188467011008    7.06911751863410    1.33863376334206
H         3.92084599898086    7.09980953206406    2.80192240815936
H         3.29013372486770    5.57539142132771    2.20045070716964
C         4.96392964954618    5.20837585108776    4.76778398685905
H         5.52266707788226    6.12909191649026    4.64436912158293
C         5.09722309627963    4.19913985344809    3.81455030147126
C         7.59125370743596    2.36126519238914    1.41082769891674
H         8.47703399878967    2.74429472678882    1.89644676108354
C         8.19644456521024    3.93981786263885    4.18549326930709
H         7.64769809925645    3.01573192412850    4.31663466989912
C         6.38063262423181    3.03201648068941    1.52958476914555
C         8.39681323923382    6.10968350349566    3.15072088301863
H         8.01765781212528    6.86657449571421    2.47763301254336
C         5.25748643822419    2.57831301901400    0.83804229817564
H         4.33109691208222    3.14045924840246    0.89721172155838
C         7.72200676470796    4.90470185813462    3.29781640488099
C         4.39210623048482    3.01118858078175    3.96129285001973
H         4.49289100313665    2.22110305713630    3.22980518016646
C         9.56201103742199    6.33615178812571    3.86215729939361
H        10.09148744875226    7.26878189712184    3.73899839557710
C        10.04669026578926    5.36761189935552    4.72426705278075
H        10.95963646988075    5.54322472370152    5.27337053001020
C         7.65989232593043    1.21633620073679    0.63714535112893
H         8.60085902328767    0.69624450176404    0.53958575020134
C         9.36056924620880    4.17354271008136    4.89045757298914
H         9.73485883841313    3.42379649751224    5.57203105332451
C         6.53675896856050    0.74811158630768   -0.02419111431544
H         6.60055171732691   -0.14250431189665   -0.63109381550452
C         4.13697185796934    5.02933067640712    5.85805468985923
H         4.03694380101623    5.81288118575432    6.59470160143778
C         5.33498671807101    1.43264839155563    0.07068218033896
H         4.46463072134190    1.08177318416992   -0.46417737983746
C         3.56548735491773    2.83809091424845    5.05838820553069
H         3.02093548858495    1.91220061341147    5.17444356462913
C         3.43384301319722    3.84253368206654    6.00227865264036
H         2.78344333112731    3.70149426072134    6.85252612460991
Au        5.44162563134974    6.20902716310350    0.87583566282551
I         7.67975992582171    5.66522700750748   -0.42853391340345
P         6.17543547902056    4.59797890476820    2.40656694956229

