55
CSD_code = FIRYEL | q = 1 | S = 0 | Stoichiometry = C20H32ClOZr(1+) | MND = 12
Zr        7.62503367253266    2.98506805709550    2.34851874395102
O         8.38262107307567    4.90543285407838    3.25716058192043
H         8.43630596698715    5.22949232245105    4.17318667096159
H         9.29904587875949    4.61855895307309    3.00959351797060
Cl        9.99762061740805    2.73631206726652    2.32765423774365
C         7.87663977991090    4.42330688912892    0.44281577066082
C         8.12628813469498    3.10549932714152   -0.03545504983987
C         6.93163116456704    2.34183298690450    0.11368492263074
C         5.91333916602761    3.20792941384140    0.63271012170060
C         6.51248771729312    4.48458226764539    0.87184199130041
C         8.84921943228268    5.56652642865327    0.36957199404699
H         9.85963974821022    5.24392977524707    0.62766362289858
H         8.55707574116856    6.38535525495858    1.02557381687248
H         8.88038239505905    5.95641092623655   -0.64940073205757
C         9.35518324042483    2.62602751982386   -0.74979955391843
H         9.60873566785685    1.60228243019192   -0.46844253088289
H        10.21159918438270    3.26500542681057   -0.54537329496702
H         9.17813373368655    2.63841776544088   -1.82722209751671
C         6.74590153587875    0.96810609120518   -0.47076425779578
H         6.84645675610463    1.01778024945045   -1.55688463891798
H         5.76020332037427    0.56677280339732   -0.24963485949068
H         7.50624554799428    0.27035741277678   -0.10762121679882
C         4.43704583530284    2.95521908816433    0.51816207179469
H         3.85892991576055    3.62885959590110    1.14417389738610
H         4.17070135350625    1.92843718413743    0.75832556224979
H         4.13563604454065    3.13387188209443   -0.51665137189122
C         5.79277181454072    5.71649543956543    1.34939747341829
H         5.38683285499294    6.26960963585512    0.50026286062812
H         6.46538579889772    6.38658251908050    1.88752049832267
H         4.95853701233902    5.45944256019283    2.00335483144646
C         7.87696766039340    2.28763072216443    4.65893194697875
C         7.71164017030883    1.12939831768604    3.84235545138567
C         6.39053109567485    1.14864153952151    3.29381317885933
C         5.73765733118913    2.32665854422159    3.77936292675569
C         6.66129657364792    3.03327656525481    4.60332928526587
C         9.07169935968004    2.56948003357405    5.52772756975370
H         8.97146184970894    3.51685077968114    6.05519142836224
H         9.99960419096812    2.58361667176142    4.95277576651539
H         9.16539289856542    1.78662503822837    6.28170285655807
C         8.69939562869367    0.01001526559781    3.66432227219604
H         9.67800551615534    0.28905954795963    4.05034051523509
H         8.80734134985062   -0.26328414582722    2.60926804172791
H         8.36526504338069   -0.87746978348121    4.20501180748353
C         5.73532905949901   -0.03992071256246    2.64643005278175
H         6.42895901218993   -0.57985624822482    2.00198084740570
H         4.85733245768189    0.24103399147746    2.06865345721359
H         5.40534232941773   -0.73377497361210    3.42324865691907
C         4.26603722607313    2.62353132924751    3.76822919640502
H         3.86062291371150    2.43469938454679    4.76466670479762
H         3.72861269929260    1.98559860724053    3.07397541627339
H         4.06123641214993    3.66745287163144    3.53008473024559
C         6.28817452689434    4.25465306622147    5.40081282904520
H         5.96881829841998    5.08035437288558    4.75727211311715
H         7.10714406185647    4.59157045582634    6.03427869686584
H         5.45160223003878    4.01715363117453    6.06021066801789

