54
CSD_code = FISBIT | q = 0 | S = 0 | Stoichiometry = C20H24N2NiO7 | MND = 6
Ni        2.00017657329515    4.17519733588018    1.17622976573829
C         3.54890797144455    4.19748160275307   -1.28799356193854
C         3.37002844995232    4.59163866751485   -2.72738929299014
C         4.37670436921682    4.30568380480170   -3.64132629647374
H         5.25579801681485    3.78119379423954   -3.29679900665739
C         4.24130440951853    4.69663403090430   -4.95985193057258
H         5.02307165587990    4.47370701711113   -5.67195610225020
C         3.10411528854821    5.37787974872535   -5.36522817751496
H         2.99985088067211    5.68630561929069   -6.39608297425023
C         2.10060611402913    5.66676490472805   -4.45601289429711
H         1.21437986128376    6.19836084916649   -4.77133830972862
C         2.22348344352290    5.27688189810398   -3.13122224784308
C         1.13042231993032    5.55698901564165   -2.10776341822503
C         1.27121491570137    1.70085648400068    0.07361031366691
H         0.33029701082664    2.22712691372535   -0.02212574669391
C         1.54882133303854    0.61225677933963   -0.74638737865714
C         2.78107303504977   -0.01074063356740   -0.59030488828552
H         3.05062864349420   -0.84937008348455   -1.21613956956523
C         3.66341433283271    0.46372450619308    0.36636589650015
H         4.62720304334552    0.00178293349826    0.50969697137444
C         3.30675852098269    1.56656697251029    1.12156363198759
H         3.97891344398966    1.98133886225605    1.86007930508804
C         0.19654835160348    3.66948958112607    3.22627397246007
H        -0.45458704372905    3.45206006745472    2.38953920223721
C        -0.26761809488772    3.54170233374409    4.52866709721573
C         0.61150169739833    3.85333519569205    5.56176435746665
H         0.29305092961827    3.77036886522576    6.59045281450101
C         1.89347571882979    4.26793351208470    5.24848394960069
H         2.60135303839059    4.51592299301344    6.02326589300389
C         2.26692826276838    4.36417812644455    3.91858496421988
H         3.26559387505601    4.67217080469043    3.64084586296778
C         0.54761234452595    0.17617101907385   -1.76518156238621
H         0.95663919461115   -0.59793977483617   -2.40888725886148
H        -0.34656890938847   -0.20965897899484   -1.27722275592728
H         0.25182892681318    1.02772471429136   -2.37498283067091
C        -1.65993258342690    3.07422129168464    4.80490736733747
H        -2.25096348260700    3.05687000987942    3.89388893722856
H        -2.14417113598138    3.72454661729723    5.53060949763962
H        -1.63886346138506    2.06827352808708    5.22293532856744
N         2.13176261249368    2.17698061477529    0.97072816888249
N         1.42974965722362    4.07469432948733    2.92446116575057
O         2.47981022880129    4.23723406792513   -0.61130746550926
O         4.66594804518508    3.88525236758517   -0.85646273843030
O         0.18434561393112    4.74474017078304   -2.08162396596328
O         1.26542748657930    6.56931522176766   -1.38563523254112
O        -0.24319888268772    4.53223540281029    0.43870598938444
H        -0.13459811488217    4.53442283511420   -0.57283461683737
H        -0.48979055288050    5.44556072922745    0.60839115386326
O         4.28858944893922    4.58270145614841    1.65520559944202
H         4.60029856625717    4.22666873661057    0.77792753248858
H         4.29826258624334    5.53893065830481    1.53535840129124
O         2.01077960535007    6.36179006000449    1.06304009415485
H         1.32654553694971    6.84825031341726    1.52881218535236
H         1.78096690091576    6.47479210674996    0.07756480365496

