92
CSD_code = FISBED | q = 1 | S = 0 | Stoichiometry = C45H43OP2Ru(1+) | MND = 8
Ru       -2.23522015990136    0.19594655100569   -3.91887670667105
P        -3.74047066844048   -0.93741810501694   -2.53690333293269
P        -0.73148700616874   -1.51618826495238   -4.46047439256377
C        -3.17744583580686    0.44369612140089   -5.98179746064797
C        -1.87091134049552    1.00641725169000   -5.99066789634410
C        -1.85991268765682    2.11572687786219   -5.10831678733375
C        -3.13802560758484    2.21811223310459   -4.51855139290033
C        -3.95144652071767    1.18462573425529   -5.06944987607635
C        -1.10865348599602    0.60370209001701   -2.38557434988457
O        -0.32651418180300   -0.33715263743683   -1.91292949500102
C         0.63550752899590   -0.13358678383999   -0.87364985847525
C        -1.03608821445366    1.96574438709605   -1.74606956927165
C        -1.92575992690686    2.03630919070217   -0.49512692300794
C        -6.50129004558657   -0.83405249424231   -1.99838724847455
C        -7.68707496587289   -0.18304470367605   -1.70808992305699
C        -7.72695830323931    1.19933432099099   -1.62512844879283
C        -6.56991787451057    1.93430365713607   -1.82452165766408
C        -5.38426003028066    1.28649922878216   -2.11924561541913
C        -5.33842565185504   -0.10014305257746   -2.22085136882690
C        -2.12078869741621   -2.15808415432269   -0.66200578085928
C        -1.66958675074918   -2.47262820471709    0.60598946768394
C        -2.31182132724118   -1.95317319601576    1.71912828515501
C        -3.40768108448513   -1.12205729045516    1.55636448102277
C        -3.86701068699892   -0.80772449485979    0.28857920271399
C        -3.22602959900052   -1.32696676213735   -0.83176221478561
C        -5.06219562679815   -2.47848896628999   -4.37720298389940
C        -5.59829338831947   -3.62529563651236   -4.93107395565761
C        -5.43105239743942   -4.84366958357020   -4.29022266069799
C        -4.73955834336878   -4.90372214910853   -3.09244582544522
C        -4.20423675754975   -3.75617904366042   -2.52987868612261
C        -4.35933357914308   -2.53417451452196   -3.17239334826603
C        -2.33732364724557   -2.61673149077036   -6.42455696182339
C        -2.66419347992598   -3.08640739547449   -7.68255601470896
C        -1.73305618361282   -3.02759479960672   -8.70662554770023
C        -0.48204389289939   -2.48713108565276   -8.46388854952090
C        -0.14710514012930   -2.02702079810219   -7.20149402464226
C        -1.06816120421310   -2.10445165939404   -6.16219440880482
C         1.33179449978143    0.38754353128012   -4.44458123363606
C         2.64167612854636    0.81150725435630   -4.59196615970978
C         3.63436047851183   -0.10201618922037   -4.90246377840079
C         3.31252565278680   -1.44066210028526   -5.06734954188685
C         2.00596642123958   -1.86624121628399   -4.91883249123784
C         1.00054887705846   -0.95228619788766   -4.59877434621960
C        -1.30484938187219   -4.21023060579171   -3.83079914731927
C        -1.11677874118284   -5.39070248086816   -3.13248743399810
C        -0.11378474814421   -5.49304644106468   -2.18465380425904
C         0.71367389795974   -4.40744131383212   -1.94534788057558
C         0.53023188330149   -3.22697763326322   -2.64001796140766
C        -0.48514154186914   -3.11186002925216   -3.59038579858723
H        -3.54569587563461   -0.29034873371271   -6.68338300877986
H        -1.08539752132171    0.75653753219052   -6.69292946897948
H        -1.06053905776968    2.83941570099911   -5.02085451609342
H        -3.49713893402994    3.05732491037471   -3.94062102287839
H        -5.01990692328344    1.09318844318510   -4.92119987469832
H         0.98474717198400   -1.12519834626146   -0.59426095730233
H         0.19981680408897    0.34671829702489    0.00064574947157
H         1.47694156360830    0.45586221614110   -1.24669038545379
H        -0.00475639471680    2.20696344160522   -1.47063722142614
H        -1.38295876947013    2.72775803258207   -2.44565548202386
H        -1.87846331346010    3.03604412964398   -0.07138977154432
H        -1.62129138703803    1.32408656397908    0.26774420494145
H        -2.95666373628345    1.81356632506914   -0.75687770511591
H        -6.48163757575618   -1.91267772891981   -2.04904446723214
H        -8.58416145868807   -0.76018029230870   -1.54309998486756
H        -8.65527919982259    1.70186026884065   -1.40177298565403
H        -6.59183711624894    3.01138515942415   -1.75097486764133
H        -4.47835961493278    1.85579564001558   -2.27482404675361
H        -1.62221971082659   -2.54901333988800   -1.53602151718722
H        -0.81842787499845   -3.12695567164388    0.72446265880201
H        -1.96079984911442   -2.19661139972048    2.71028017615908
H        -3.91154287447729   -0.71687476442084    2.42080801109963
H        -4.72548246899822   -0.16174600485567    0.17864227801252
H        -5.20017077280987   -1.52115401624508   -4.86559411296103
H        -6.14823930050702   -3.57082771748897   -5.85877643284811
H        -5.84795407899606   -5.74113990488343   -4.72071028320770
H        -4.62155428905521   -5.84865939012757   -2.58400587160200
H        -3.68142153837171   -3.81530216295232   -1.58735883490461
H        -3.07946965749921   -2.62368652629751   -5.63719802651856
H        -3.64929059216516   -3.49013860553521   -7.86510287109281
H        -1.98572913991039   -3.38897129063940   -9.69146148763035
H         0.24156422944831   -2.41969746271407   -9.26224793445512
H         0.83190949765837   -1.60113691159517   -7.03883900868501
H         0.55355800099421    1.10236161722530   -4.20219282714106
H         2.88716023579375    1.85601941455157   -4.46839741466899
H         4.65539004018451    0.22696540710660   -5.01896107083758
H         4.08266337549745   -2.15493687144356   -5.31609356425447
H         1.75962317622433   -2.91079228251955   -5.05164989725021
H        -2.08363470460729   -4.16114717872077   -4.57433872633335
H        -1.75672234104399   -6.23531141583031   -3.33784396675920
H         1.50984743816280   -4.48359093646565   -1.21950747205091
H         1.18713917814371   -2.39053590923337   -2.45904570121420
H         0.03018869874501   -6.41493519052754   -1.64260888351582

