67
CSD_code = FISCIW | q = 0 | S = 0 | Stoichiometry = C26H28FeN6O4S2 | MND = 6
Fe        4.89222281802503   10.61590728375905   21.55292665232139
N         5.51116004649858   12.39004015863858   21.28871483861693
C         5.67386576147798   13.55013462746596   21.22530268875979
S         5.91421495643351   15.11591586733042   21.12396441094965
N         4.27547399643280    8.84010007315366   21.80438974709476
C         4.05423687638154    7.74538528288497   22.16474096197422
S         3.74505225462508    6.26078693268606   22.63175129008480
N         4.11801857328093   11.14895154504147   23.30191950965165
C         4.75551155013227   11.98437894230531   24.12277001144368
H         5.72450913900695   12.32532756792480   23.79096176748348
C         4.23917779845303   12.43628755412498   25.32141778856014
H         4.82147607686549   13.11963129559437   25.91726989032552
C         2.97658680605543   11.99910635379190   25.72194899859053
C         2.31355589252542   11.10668402470918   24.87060921502936
H         1.34150750758138   10.73500996535381   25.14942220167408
C         2.91223592832915   10.72055177889324   23.69463740948429
H         2.42264685677417   10.02225665262354   23.03292419146176
O         2.33959482834749   12.35783286046935   26.85379507298555
C         2.97261270232848   13.26717003810942   27.72732216808310
H         3.91168902576417   12.86095258413714   28.11445662411649
H         2.27682966056590   13.41566648999085   28.55103064658205
H         3.16372241775981   14.22539221123605   27.23563239993014
N         6.60956527553635   10.14283995492491   22.44536974833283
C         7.78244686280325   10.56838764812530   21.96147648606023
H         7.72643023220002   11.24488519422907   21.12214278302655
C         8.99975129127370   10.20653104417712   22.48808729861837
H         9.92123736007463   10.57234583100299   22.06641975891823
C         9.04516660605107    9.34360077596835   23.58997266283205
C         7.82348657862138    8.91633938969405   24.10989076979608
H         7.76439949713767    8.25887064518282   24.96141867786699
C         6.65418104093638    9.34274054874661   23.51087797806846
H         5.70199451975516    9.00836118218908   23.89387326038618
O        10.26291768665153    9.00409951786079   24.05541226215357
C        10.34541283503169    8.11849344240006   25.15076998501165
H         9.87799317693544    8.54360192850196   26.04380516098918
H        11.40883674254171    7.97551090356525   25.33316419782937
H         9.88320873784643    7.15453243174122   24.91977182418323
N         5.67553189635707   10.09729017230588   19.79295891427680
C         6.30440051225230    8.92886556540798   19.61938856152359
H         6.31278655285758    8.26655714892026   20.47181264172651
C         6.89394625330468    8.55060829176101   18.43629017998737
H         7.38830991805624    7.59837082899342   18.33904233872162
C         6.85290202767110    9.41694202531946   17.33703915692164
C         6.18968557948611   10.63140175870321   17.51269758509445
H         6.10717291915436   11.35570440885255   16.71919131236618
C         5.62592637429742   10.91488674339482   18.74134163213262
H         5.12537384307860   11.85828509021798   18.89980892413655
O         7.45672421061729    9.00381868261241   16.20582151747556
C         7.44881244431375    9.85833651282406   15.08329554099499
H         6.42964924958781   10.05080235785049   14.73534914775475
H         8.00126621360813    9.33013462673170   14.30838181499788
H         7.94652314446376   10.80773712323702   15.30112739135290
N         3.17777504182486   11.07480356533097   20.65021084038580
C         2.60086958557745   10.22640556600193   19.79075917080183
H         3.09702983589155    9.27613539296684   19.66476002708837
C         1.43717791335428   10.50373634275181   19.11315573308086
H         1.00490068491547    9.78998978619147   18.43159106384206
C         0.79939454411301   11.73444714453276   19.31203191251086
C         1.39308642056271   12.61619746238519   20.21498940454643
H         0.96917519864866   13.58297880060004   20.43077297987303
C         2.56170685883758   12.24038516254264   20.84841750681134
H         3.04040878493731   12.91952927681367   21.53769316466994
O        -0.33218039323122   11.96015963192245   18.61633907529435
C        -1.00242024614267   13.18885468895023   18.79504879191074
H        -1.33135249031903   13.31672407568565   19.83045422439569
H        -1.87233601024550   13.14629946570552   18.14230664655485
H        -0.37117678486179   14.03370177198702   18.50476145939540

