67
CSD_code = FISCOC | q = 0 | S = 0 | Stoichiometry = C26H28N6NiO4S2 | MND = 6
Ni        8.61310599088412   17.22624592182945   17.22627811601705
N        10.37712461312231   17.22628959679122   17.22635420646053
C        11.55032890758001   17.22578656744965   17.22590424493793
S        13.13605717091168   17.22528436289890   17.22530775321883
N         8.60924664056717   15.68732108348751   15.69008438047673
C         9.50749615033734   14.70840087052941   15.69691316920029
H        10.16528718919749   14.66366700285788   16.55448116453535
C         9.64326173190033   13.77626035409422   14.68372739145561
H        10.40214199380417   13.01558676577301   14.76690610147857
C         8.79480078104564   13.85405149243554   13.58066458463528
C         7.84069315094393   14.87705737086640   13.57913013452436
H         7.16076539490403   14.96328424547682   12.74771377074218
C         7.78861873929579   15.75309107355138   14.64047569015339
H         7.04854303528305   16.54153036297878   14.65578217354697
O         8.80930682663943   13.02966089140153   12.51666390250408
C         9.76215747766311   11.98985221074246   12.47575104353088
H         9.62201266344171   11.28782373432723   13.30297800206881
H        10.78263148673244   12.38290827282095   12.49809742398550
H         9.59384497231593   11.47419261556363   11.53216241178496
N         6.84909090742330   17.22630771705506   17.22633347505363
C         5.67588994385141   17.22597527557229   17.22572800205166
S         4.09016596642691   17.22513403046068   17.22612797476764
N         8.61699883560803   18.76512213501066   15.69013516827153
C         7.71868508444842   19.74398467708734   15.69692261097319
H         7.06084390704107   19.78866573321661   16.55445538150930
C         7.58290173483074   20.67610890795363   14.68372375000735
H         6.82396420403717   21.43673072885747   14.76686323092897
C         8.43141774468000   20.59837105520299   13.58069930419897
C         9.38558819215824   19.57542402244908   13.57921017633419
H        10.06555632771555   19.48924072552275   12.74782400549087
C         9.43767359663840   18.69939658970474   14.64056057154471
H        10.17779762272125   17.91100532068412   14.65589727588953
O         8.41690893921164   21.42276623487124   12.51670229203168
C         7.46400438634280   22.46252448132127   12.47575326667806
H         7.60406026712492   23.16454029184853   13.30301049423667
H         6.44355366451817   22.06941628739377   12.49802364285673
H         7.63235562052211   22.97822258351147   11.53219309690057
N         8.61693213397680   15.68734495250187   18.76235936892405
C         7.71866821775140   14.70843802337161   18.75550528184087
H         7.06086079417711   14.66374130903141   17.89794711965850
C         7.58291113567541   13.77625634322570   19.76865547052717
H         6.82401763337590   13.01559477101803   19.68545887286553
C         8.43139510971547   13.85398845402015   20.87170521072992
C         9.38551336325115   14.87698478427835   20.87326464992479
H        10.06546087043037   14.96316224388129   21.70466867906128
C         9.43757887965242   15.75306310576497   19.81195616619608
H        10.17766430113107   16.54149047000718   19.79666497081339
O         8.41689208882027   13.02955456371558   21.93567202447347
C         7.46400963105189   11.98977393290991   21.97656611422590
H         7.60411156044112   11.28777744869441   21.14930096650330
H         6.44355147714131   12.38286180547908   21.95426470147588
H         7.63233663632125   11.47406344284122   22.92012324824331
N         8.60924967035302   18.76521371837415   18.76245651694963
C         9.50755380960906   19.74408132372186   18.75563505452352
H        10.16538453932729   19.78874428422559   17.89809326054930
C         9.64331509393084   20.67625899902146   19.76878915261953
H        10.40223179696251   21.43689866801921   19.68561632196761
C         8.79479778988574   20.59855201753502   20.87181454950550
C         7.84064754187983   19.57558630607299   20.87334971577787
H         7.16068312005773   19.48942210100813   21.70474287505213
C         7.78857501495257   18.69951868109167   19.81203023269622
H         7.04846909691531   17.91110798004101   19.79671785421753
O         8.80928826174328   21.42299064029459   21.93578049398445
C         9.76217166946046   22.46276902700447   21.97668183453767
H         9.62208686932097   23.16475727975184   21.14940573912050
H        10.78263092674512   22.06968111237509   21.95440329948718
H         9.59382910407338   22.97849061712047   22.92023086857022

