47
CSD_code = FISDAM | q = 0 | S = 0 | Stoichiometry = C16H18Cl2O10Zn | MND = 6
Zn        5.16559786783258   20.80984612612818   -0.47169258648206
O         4.15689484573219   19.44775430610636   -1.86172116889678
O         6.36352922261126   22.01404999808615    0.76526861446246
O         3.60990288187110   22.55387635680556   -0.69470721643177
O         6.68337321399793   19.34615854893365   -0.45217791605480
C         5.14879655482293   16.46789435404833    2.59256991901320
C         5.96611854537467   15.60610429215611    1.85048172649796
Cl        6.94462773657209   16.27867500548005    0.59579046770197
C         6.00294952514651   14.25014032693057    2.10100164135118
C         5.21357800031316   13.72137425415431    3.11001896579509
C         4.40074549969677   14.55687809444661    3.85259969742024
C         4.36517223079535   15.91857118035977    3.60080000716957
O         5.20428625275286   17.77873663092993    2.26013220626028
C         4.35799886695611   18.69788610211307    2.92818615541656
C         4.62196814382734   20.02956742075499    2.18971128936349
O         4.29580998242111   20.00842101953390    0.97232827324365
O         5.15948211204244   20.95634916949018    2.79181350354677
C         1.72785598345430   24.60102216586373   -3.61982987355762
C         0.97602446888342   25.74852169398136   -3.35626208185884
Cl        1.27855989852008   26.62896252843841   -1.90465000423761
C         0.00297488873218   26.17281444849393   -4.24200751642918
C        -0.22882643782311   25.45359586266952   -5.40286492506961
C         0.50471178807693   24.31102489926779   -5.66538192025684
C         1.47834294525537   23.88133808106492   -4.77886765118283
O         2.67307698115609   24.25180094965847   -2.68300614151364
C         3.59627932421241   23.29532328351810   -3.03264939124760
C         4.12868672251282   22.43063665340447   -1.97581715845115
O         5.31580254295279   21.92140455334276   -1.96569951844715
O         3.17277741612894   21.94078816062496   -2.92527589334274
H         6.64429586981405   13.61553318493942    1.50971304364901
H         5.23877567631641   12.66203951217821    3.30991518890392
H         3.78465599301633   14.15155815297548    4.64056124244592
H         3.72752477841239   16.55402302681599    4.19403685841918
H         3.30632200341381   18.41266288455693    2.81687540498019
H         4.62634889776687   18.78900185799477    3.98631439768489
H         4.84794724640928   19.21649996550248   -2.49189734277333
H         3.55776720733318   20.04010641628242   -2.33743738711368
H         5.95835246041553   21.81413336120099    1.66079253036065
H         6.18329350111714   22.94062590992667    0.58238096859227
H         2.71560997506911   22.92492069682196   -0.72020852260188
H         7.46825983773425   19.70351190544025   -0.02382300827197
H         6.39016264125996   18.58772083967196    0.07832135531732
H        -0.56371220073983   27.06248750178802   -4.01824067724291
H        -0.98594405903377   25.78650796278285   -6.09533035011911
H         0.32084266469782   23.74211413142918   -6.56362144277521
H         2.03262768948392   22.97691733655293   -4.97294309733968
H         4.18227181263676   23.49931888634977   -3.92460066594702

