45
CSD_code = FISDUI | q = 0 | S = 0 | Stoichiometry = C21H18AuBr3ClP | MND = 2
Au       15.00339574702198    6.74215310112764   14.90892652285314
Cl       14.82091453647932    8.08380476222937   13.09524441704183
P        15.20700379776606    5.39960666824375   16.69348775096170
Br       17.78460266386703    4.89640413712856   14.05429776907209
Br       11.99939300905404    5.06371913957869   14.86159999550683
Br       15.35851798042909    9.03018509842082   17.44902658768028
C        16.93125481537102    4.86400361016335   17.09242825398989
H        16.99642812969380    4.63515038193764   18.16069376093457
H        17.15165316397985    3.96592227438106   16.50898496116247
C        17.84350678818814    5.98833330634709   16.71243489737203
C        18.25728072354761    6.17376276479104   15.39567753816297
C        19.02700460474068    7.25846628232374   15.01803776812787
H        19.32055967848252    7.37537139173196   13.98661578914671
C        19.40090973085331    8.19020181162347   15.96971173531280
H        19.99099230612891    9.04411277749204   15.67697299996115
C        19.01860736022899    8.02032925409873   17.28859585500799
H        19.30917295907475    8.74093279547115   18.03633530298276
C        18.24694737228874    6.93103440824799   17.65079574651955
H        17.95092664794896    6.80561221447846   18.68231238655063
C        14.30351697051550    3.78876430933513   16.60079086596567
H        14.81254140633361    3.05696208407776   17.23580645398637
H        13.28539622604599    3.94875276363137   16.96611019342538
C        14.29848852963803    3.36496930963866   15.16526071274867
C        13.38243052496470    3.89025647845092   14.25724574583032
C        13.42596730917630    3.57580816302078   12.91155144325269
H        12.70550063808405    4.00911844942774   12.23555586116792
C        14.40426487303799    2.71531189239287   12.44640667258372
H        14.44966548519191    2.47740941908543   11.39547107328837
C        15.31423748072918    2.16335801782818   13.33051359706371
H        16.07764703199538    1.48942205894380   12.97577886392489
C        15.25908245642510    2.48866717443514   14.67374191317846
H        15.97503513981165    2.05643157238131   15.35776310439561
C        14.62453645715649    6.08445559998897   18.30923361145313
H        14.35803858517283    5.25582870616487   18.97277935566369
H        15.44357619389398    6.66002418100761   18.74909772638918
C        13.44629779877536    6.96108355048011   18.02038677680002
C        13.60861069813447    8.26805236884480   17.56778377832152
C        12.52977152030523    9.05654778567956   17.21260560398699
H        12.69341577787503   10.06162982317882   16.85652051502107
C        11.25006631393761    8.53946822769319   17.30757524768979
H        10.40653988258966    9.14638618629172   17.01917501453384
C        11.05960353593162    7.25057235749635   17.77321214197595
H        10.06468078992198    6.84237738619227   17.85295051005571
C        12.14881008311371    6.47316354548573   18.12308498634374
H        11.99270627610055    5.46707240902955   18.48471819260583

