57
CSD_code = FISKUN | q = 0 | S = 0 | Stoichiometry = C20H28Cl2N2O4Pd | MND = 4
Pd       -0.00026299816037   -0.00048197242546   -0.00005779946686
Cl        2.17004718044942    0.61972953058577   -0.37071115066496
O        -0.68844227641490    3.89899224917339   -2.63489789116382
O        -1.47000330975127    4.90530431938478   -0.67798862252983
N        -0.66858454829067    1.39175896397027   -1.32630237791555
C        -0.85341613577214    2.63055094535994   -0.57168277869504
C        -1.47204955269193    3.74544161003073   -1.46787827036522
C        -2.86649867620097    3.30846743879039   -1.88760493305181
C        -3.88942682299207    3.35763265435948   -0.94732243283533
C        -5.15921733070964    2.92533271155773   -1.28070630556213
C        -5.41473090697019    2.43452150575850   -2.55055958097038
C        -4.39737403072162    2.38139828613774   -3.48695555492050
C        -3.12394065704253    2.81537295544753   -3.15920425944102
C         0.59827607459635    4.33178777842934   -2.46313520820690
C        -2.02228789208935    6.05549725751119   -1.29274044958584
H        -1.56982802227688    1.08929510278766   -1.71543290283139
H        -0.00755242650151    1.55713873924088   -2.09304059001405
H         0.12009863165923    2.97838505150308   -0.20441824075512
H        -1.52726283501132    2.45160292307694    0.27551624990746
H        -3.68224125223802    3.74184721950624    0.04050529159361
H        -5.94889372856265    2.96641664179231   -0.54613874107430
H        -6.40568221173422    2.09279749296094   -2.80876185079881
H        -4.59153321565858    1.99843402227430   -4.47760136477278
H        -2.33114471482824    2.78184998350025   -3.89032203849311
H         0.86474915790608    4.84098254776243   -1.55640875783651
H         1.09874874205886    4.52400197674533   -3.39048686856069
H        -1.48284275217759    6.31228814300417   -2.20903053629742
H        -3.08059987791500    5.91041690783287   -1.52839844240101
H        -1.91061717281897    6.85605395191290   -0.56547944263659
Cl       -2.17087023866419   -0.61928227783020    0.37005035502881
N         0.66801667030477   -1.39229661525863    1.32650538079760
C         0.85290445541607   -2.63106141305406    0.57188557401306
H         1.56924226914982   -1.08986767564143    1.71576013495475
H         0.00696319662516   -1.55770302521693    2.09320733723817
C         1.47194718343827   -3.74570148598455    1.46808432902015
H        -0.12063299325471   -2.97911018028968    0.20485474636737
H         1.52656664573515   -2.45202770055231   -0.27544343330502
O         0.68853455467671   -3.89919627055971    2.63521410000119
O         1.47003538024612   -4.90565103994138    0.67833862779714
C         2.86634051842239   -3.30824759264880    1.88750410691630
C        -0.59798935321187   -4.33277880256856    2.46359179144024
C         2.02334926561870   -6.05545437119552    1.29286528816361
C         3.88903994622113   -3.35679514224070    0.94694750292698
C         3.12389434924633   -2.81532600802961    3.15914748314227
H        -0.86319919499780   -4.84388302814266    1.55751807190572
H        -1.09773382174507   -4.52542524837155    3.39132511912955
H         1.48451939890443   -6.31256699259031    2.20942259634490
H         3.08166404346872   -5.90962548118158    1.52802647033136
H         1.91187528262872   -6.85608372153614    0.56565625382301
C         5.15871330169570   -2.92396663151663    1.28008844179633
H         3.68178336505623   -3.74092124604998   -0.04089833873057
C         4.39720158976534   -2.38079776728244    3.48665145684976
H         2.33125576207797   -2.78236450511430    3.89045471802335
C         5.41431094571193   -2.43321715718576    2.54994775665618
H         5.94821217256409   -2.96454753942141    0.54530803233411
H         4.59142317079052   -1.99792967493425    4.47731953751582
H         6.40514569496728   -2.09098834363337    2.80791240986075

