33
CSD_code = FISLIC | q = 0 | S = 0 | Stoichiometry = C11H15Cl4NOW | MND = 6
W         1.43813425716517    2.45383558893203   -2.57644640997026
Cl        2.55838681857960    4.32789627089243   -1.73890057694074
Cl        2.70895334059331    1.10164662325314   -1.15835392855399
Cl       -0.02022403378582    0.64878992653592   -2.88120473360265
Cl       -0.23362984115214    3.88884315784512   -3.35409432187444
O         0.24704009002555    2.69518494279863   -0.68504475022280
C        -1.15991592352270    2.42141916641136   -0.54501255383530
C        -1.57273728075811    3.02242546510380    0.79318050840887
C        -0.30048384658902    2.83482748000060    1.61472454981209
C         0.77633363039223    3.13789893714336    0.57892174133583
N         2.35709193179357    2.25719275758928   -4.07702324127698
C         5.01939003123611    1.55650371002158   -8.99386954567727
C         2.99285531411389    2.09608253149661   -5.23771962406270
C         2.29964771112511    2.25362897338692   -6.45181516104751
C         2.95447250358963    2.07781713460015   -7.65039428741242
C         4.30546528575116    1.74656546910324   -7.69226520390503
C         4.99212649920807    1.59358538553824   -6.48851098764639
C         4.35944036977229    1.76133331548954   -5.27883982907734
H        -1.68450336043851    2.86111737233050   -1.40004311144600
H        -1.30236973767609    1.33265812738814   -0.55124233487093
H        -2.43593384012934    2.51636465670818    1.21702403294341
H        -1.80021171505110    4.08273149443971    0.68125981510926
H        -0.24026372858966    3.50122674040543    2.47107884116794
H        -0.21878607026145    1.80355640033779    1.95895884331738
H         1.71771986591208    2.61002559704318    0.76429490072136
H         0.97078737430429    4.21642495057183    0.51279794523905
H         4.34303082873647    1.69024899278004   -9.83378896288447
H         5.44972671718376    0.55728176483873   -9.04765722496958
H         5.83518558826202    2.27267267772783   -9.08594045293075
H         1.24984297589758    2.50985513351630   -6.40970526262893
H         2.40776660560696    2.19978460613672   -8.57441584829418
H         6.04167371740443    1.33723001713289   -6.50872693615044
H         4.88548792129907    1.64334463249093   -4.34202588877579

