62
CSD_code = FISNIG | q = 0 | S = 0 | Stoichiometry = C17H26F6FeN4O6S2 | MND = 6
Fe        5.85446555085616    5.97935874436508    4.62891210316783
S         7.93513535216576    6.81021629003222    6.46455230327647
S         8.87121948506988    6.24753233088144    3.62623294023769
F         8.97032798531419    8.74798899911881    7.92242246056293
F        10.31035676620515    8.15261933638091    6.36860076327885
F         8.56818648638681    9.37329086558958    5.92772965025006
F         8.55059333578484    5.48561836393451    1.06362777143879
F         8.24097843943025    7.60097188658505    1.23698666859462
F        10.24357486264798    6.81072494939267    1.27246250055901
O         6.78637591905845    7.33338900435479    5.73419154988225
O         7.57836181498924    6.51728709346985    7.82862870839278
O         8.66257134238720    5.76303774454240    5.80930426823706
O         7.47894375013789    5.77662423169273    3.51437556099615
O         9.90138663351130    5.26363005671772    3.67403338229552
O         9.04015883663752    7.57308466356989    4.14568293335854
N         6.25741609479897    4.55702340029391    5.94532941209840
N         4.23800550826529    6.29158832205126    5.65130738351557
N         4.76539781827554    4.76805774558430    3.47303200303998
N         5.25510973933691    7.47852087201559    3.47582379240783
C         8.02599378474069    3.23690946144707    4.84478391850118
H         7.83560661707552    3.89519828578792    4.01574038348804
H         7.94246250793616    2.18781794198787    4.56384929869410
H         9.05332732026127    3.43639995791463    5.14269247751835
C         7.14288380655963    3.55637452244031    5.99421037785004
C         7.28366061657172    2.76106979255106    7.13407312895201
H         8.02196257905265    1.97508949511001    7.12284287040742
C         6.51419841261975    2.98986377258859    8.25262927413402
H         6.62093607338885    2.38884073157361    9.14222250438774
C         5.60429801035631    4.03283250731472    8.19844809729097
H         4.98668883504323    4.28134648258916    9.04598566480823
C         5.52704587908701    4.78841288825564    7.04370404789848
C         4.64796961777157    5.99404473832798    7.01025765765229
H         3.79389859661447    5.88867482258067    7.69123886291177
H         5.28572947514986    6.80608925744190    7.36239115099748
C         3.94670180022331    7.70955415249080    5.47403321427008
H         4.76218757370435    8.24657637091154    5.95154107406952
H         2.99031165810592    7.99625298758888    5.92927918432428
C         3.99763737708364    8.02767886876355    3.99089783111051
H         3.14628619442813    7.59765056637031    3.46530696498909
H         3.95456179095170    9.10993686569314    3.83983883692946
C         3.15167012770984    5.42050698657169    5.20040498860576
H         2.44220384904675    6.00084158733272    4.61097010893035
H         2.60163081453465    5.00717222353950    6.05261307268608
C         3.72456290369211    4.27685809909108    4.37001523318400
H         4.19965467723277    3.56450674563296    5.04083290236222
H         2.92478895335597    3.75941121151729    3.82108284523653
C         4.23992766411807    5.57193076456779    2.36358715881131
H         3.20186056125227    5.84002268570513    2.56129233919737
H         4.25060286311280    4.99828126726062    1.43223597794512
C         5.10678677366413    6.80899514575116    2.19618994234509
H         6.10600771616597    6.49427758724920    1.90974941083614
H         4.69911134363280    7.47557955900883    1.42448901506161
C         5.52065261044995    3.65309422136985    2.93158404452809
H         4.90796322014517    3.04575263870829    2.25597037000540
H         5.87358983176105    3.03522991482538    3.74464838837260
H         6.37804562591283    4.05133106602131    2.40073914653473
C         6.23379690046825    8.54908020201880    3.38709464487350
H         7.22562149803374    8.13263243415366    3.29171914320817
H         6.23411436386882    9.11150250460982    4.31302398172627
H         6.02053707694377    9.20933290431192    2.54202824116271
C         9.02849160673705    8.34293089565630    6.63563099467898
C         9.00366477017519    6.58544998479733    1.71419507293315

