46
CSD_code = FISPAA | q = 1 | S = 0 | Stoichiometry = C16H23ClN5Ni(1+) | MND = 6
Ni        1.51354428502724    4.53302227897387    3.37178509923233
Cl       -0.52087345917300    4.29069188468180    2.96353901207029
N         1.04971098425645    5.65910164909561    5.27606753206576
N         1.31913783146485    6.43593433600644    2.74869255239524
H         2.23924452248165    6.84171648149233    2.92961831409273
N         2.30054193350428    4.40533416996651    1.21669761641943
H         1.74707697103519    3.72362218815364    0.70336537722682
N         3.53526356614363    4.66849020119374    3.72066868871231
H         3.75013054108757    5.51462564768494    4.24414664043931
N         1.71285578652261    2.67171332366619    3.78835621307565
C         1.01694219985354    5.22319460357376    6.53458273557495
H         1.56405904115791    4.31133889022932    6.73839220987296
C         0.32752241390384    5.86331518438939    7.54737591460308
H         0.33000986772257    5.46070819144208    8.54699566177262
C        -0.36129394595108    7.02837541804581    7.24426909837920
H        -0.90846914136985    7.56131846027085    8.00594420490996
C        -0.33940483738341    7.48831673326192    5.93991229688014
H        -0.87083599030942    8.38308102837129    5.65671395288358
C         0.36933432038098    6.77088904042184    4.98499713943764
C         0.34837271073872    7.19581335048959    3.53713033598346
H        -0.65196829266747    6.98095778206137    3.14708175503209
H         0.52235364619052    8.27666783721739    3.45553521969105
C         1.08122323798123    6.52069786969576    1.30343802313747
H         1.09282874833550    7.56250050947316    0.96076205437946
H         0.09943743079068    6.08834745914745    1.09908987384785
C         2.16130683833121    5.71587933114675    0.57102273786504
H         1.89498705938112    5.63220036179183   -0.48705225910443
H         3.11301270168028    6.24959333652087    0.63144255302740
C         3.67512485761530    3.93306448522918    1.34783096269947
H         4.26637377769844    4.07717328701484    0.43301526009736
H         3.65056414712371    2.86420640606813    1.57184404638482
C         4.35789998647454    4.68343460245487    2.50107069572281
H         5.34411579155307    4.24099329618067    2.68423494600780
H         4.51486007286894    5.72288936156582    2.20442670566344
C         3.81843641256623    3.53462480446650    4.60672161654780
H         3.62674163075268    3.84277680376959    5.64057770869398
H         4.87000697202349    3.22359633687388    4.54369018970136
C         2.91482977799587    2.37701936239197    4.29923439845964
C         3.30429466857357    1.07280079681794    4.57185045874095
H         4.28305407488473    0.88376874238323    4.98402647154433
C         2.42805962945460    0.03299909139624    4.31417266735457
H         2.70850997799659   -0.98778968230682    4.52064400681129
C         1.18715699431263    0.34274705703540    3.78299036350852
H         0.46512025910439   -0.42580541245441    3.56188753215240
C         0.87335082284552    1.66704852355337    3.53357215665410
H        -0.09165082496150    1.93020458909293    3.12193925935125

