125
CSD_code = FISREF | q = 1 | S = 0 | Stoichiometry = C64H56AuP4(1+) | MND = 4
Au        2.10369654140697    0.64796423976114    6.14735193507278
P         4.24630555576240    0.55844187279719    5.04322432679199
P         2.64881014073501    0.17205757558289    8.46960378475942
P         0.64679082816411   -1.19321838931378    5.50753007640326
P         0.68588651393714    2.58459131659654    5.90715706577054
C         4.38889686003527   -0.33432056578593    3.47168998665598
C         4.46918879579741   -1.72420123793665    3.45575112427788
H         4.50566281032708   -2.28134237474800    4.38120373099646
C         4.51501174813564   -2.40240033161701    2.25250923659964
H         4.58927436671213   -3.47951568478323    2.24816232773378
C         4.46998136876579   -1.70413334448176    1.05764024322617
H         4.51765610490016   -2.23555784417058    0.11967618179277
C         4.36013429105157   -0.32329898142543    1.06806327958509
H         4.31879190575561    0.22303693428314    0.13737915062351
C         4.30729023530663    0.36090520573396    2.26722921160381
H         4.22279717911241    1.43926159861725    2.27393274468155
C         5.04105021626011    2.15115154485324    4.70289162563387
C         6.20959137544620    2.25450206603982    3.95165126382323
H         6.65328753860710    1.36914211243903    3.51569785820109
C         6.79090928147437    3.49311048319150    3.76044876871850
H         7.69609152006951    3.57630013533979    3.17750432080306
C         6.21850918450151    4.62746726618161    4.31706611549594
H         6.68068326124798    5.59109743720557    4.16589724233557
C         5.05517098030447    4.52711169819019    5.06081586186482
H         4.60901959690607    5.41155035267367    5.49121379401128
C         4.46595731894563    3.29071674067535    5.24992479812375
H         3.54547478463200    3.19647143022376    5.81762089617977
C         2.69784085235462    1.63909307015592    9.53244264621718
C         3.37694089232368    2.74391158814633    9.02648631761883
H         3.79566145692495    2.69783857167371    8.02887591533015
C         3.52629677901549    3.87779995196232    9.79987792692963
H         4.06939851063337    4.72626326011493    9.41188812817452
C         2.98021693262129    3.91973228355977   11.07241369963065
H         3.09719943820898    4.80425372717310   11.67987050494814
C         2.28234837631182    2.83024688899960   11.56785820192750
H         1.85466646303312    2.86795965113401   12.55873589520866
C         2.14060952084046    1.68543564132235   10.80483806277817
H         1.60516549146548    0.83121014889762   11.19597455305011
C         1.40439320205593   -0.87000587162768    9.26656866558601
C         1.64619704477718   -2.01284289671984   10.01675684615478
H         2.65372575112180   -2.36338978069014   10.18334776256600
C         0.57919761303706   -2.71011189206269   10.55775591269560
H         0.76615606800412   -3.59382080494721   11.14915139371566
C        -0.72067246364151   -2.28117669770716   10.35049710890318
H        -1.54455297195588   -2.82886282702389   10.78192787785949
C        -0.96688430618860   -1.15116867789386    9.58517199451126
H        -1.98247187679065   -0.82011218149778    9.42075118258102
C         0.09277333567503   -0.45601316673592    9.04045633207265
H        -0.06283302647484    0.43227945266672    8.43684478647055
C         5.52459348078879   -0.29534074340572    6.08899624864238
H         5.09089673950651   -1.25386589913025    6.38585749856081
H         6.38926437120699   -0.48567046054018    5.44266208792620
C         5.94066301830937    0.51577524839290    7.28253499253194
C         6.97061958350885    1.43748367628800    7.10632920256903
H         7.42791054409704    1.53218270256795    6.13259372317394
C         7.42787811673724    2.22419101441552    8.14454688376288
H         8.22183620729335    2.93423949545294    7.97222985039423
C         6.87129003097298    2.08266314388154    9.40331553687894
H         7.22047075020445    2.68268508517701   10.22911163833941
C         5.86821222248092    1.15476490839297    9.59978208723003
H         5.44649296645948    1.03206535977948   10.58747128217252
C         5.38606963033602    0.36497001111081    8.55790171126743
C         4.27976984859233   -0.59594665262968    8.88488270680351
H         4.28478349588393   -0.81191080592633    9.95828062550304
H         4.34570977855419   -1.53456996540194    8.32687092817462
C         0.90854883164231   -2.66560493648583    6.52389793989811
C        -0.07553481846968   -3.42521464919351    7.14180066105778
H        -1.11921847833826   -3.16721584252665    7.04242432155413
C         0.28927148457859   -4.52872960722873    7.89445808192853
H        -0.47522259045785   -5.12625537016307    8.36793630518219
C         1.62223543618329   -4.87335658165503    8.03973270403503
H         1.89448123422568   -5.73933822926853    8.62352497204970
C         2.60905370848394   -4.10503328280007    7.44045920378316
H         3.64944000412436   -4.37271654284850    7.55859096198584
C         2.25050172239846   -3.00221643517749    6.69349869547755
H         2.99543084871225   -2.37833577291185    6.21017918457583
C         0.93005650111298   -1.80242754895304    3.82431426069940
C         0.97890709938935   -3.15123248930140    3.49293336083441
H         0.88869363798613   -3.90466272962890    4.26333446298613
C         1.13723099814082   -3.52100570986612    2.16962093345656
H         1.17064664700306   -4.56824122093410    1.90821298889893
C         1.23967706616991   -2.55623243329952    1.18067343607905
H         1.34981042016024   -2.85383303641190    0.14900163423390
C         1.20318766082359   -1.21159364237098    1.51215420602403
H         1.28482286712784   -0.45859452038899    0.74291483336819
C         1.05885368032042   -0.83433077767681    2.83233449156377
H         1.03126670377745    0.21287954762982    3.10669584073508
C         0.89562609440681    3.55086849576124    4.38858137255038
C         1.71518329941446    3.02758353066396    3.39711677569559
H         2.23284781335444    2.09120613031862    3.58050290484560
C         1.87547927895932    3.69997705995223    2.19968895718920
H         2.50952774372153    3.28875271871346    1.42804997248145
C         1.22105793758792    4.90242158023123    1.99381533419623
H         1.34488546687008    5.43111990201180    1.06098076963909
C         0.40917399982069    5.43368976879329    2.98522943213248
H        -0.09644365616766    6.37382500285267    2.82216233961780
C         0.24082315018892    4.76280989524149    4.18113380437935
H        -0.38976316951807    5.17738231785867    4.95657882971089
C         0.68585429478541    3.83958359593553    7.21557263197171
C         1.48181882149277    4.97594525540540    7.09079740139517
H         2.05010545300544    5.13736158417163    6.18466602246506
C         1.52470526603661    5.90621330883889    8.11158544719156
H         2.12639758724216    6.79612429097853    8.00032097096545
C         0.79630052865564    5.70209222581018    9.27197265868435
H         0.82619388635656    6.43357445352580   10.06477620654312
C         0.03220295727809    4.55618065066850    9.41535597501117
H        -0.52768584558156    4.38831520808493   10.32311580622405
C        -0.02025188338556    3.62444830281487    8.39620792500927
H        -0.62030381328859    2.73409604194451    8.52040072367898
C        -1.18494559460638   -0.93680672180817    5.46707492297450
H        -1.65367505832067   -1.90300519415598    5.25377459774858
H        -1.48546691951684   -0.60158367995663    6.46410912055050
C        -1.53232257052577    0.04270967235106    4.38374620361467
C        -1.91619106456782   -0.48447314110940    3.15232463055874
H        -1.96680204732230   -1.55793299561409    3.03594276206393
C        -2.23738609763433    0.32758620507761    2.08317235268412
H        -2.52742782006901   -0.11051158772575    1.14092894845847
C        -2.19401591460176    1.70180565318909    2.23773069756568
H        -2.45240443000095    2.35463350038693    1.41841740165317
C        -1.83105134956181    2.23811076015796    3.45699595264224
H        -1.82668728862528    3.31095188337403    3.58024784760761
C        -1.47950379228245    1.43208964023474    4.53775905974987
C        -1.11135755199196    2.11673204246455    5.82284982395905
H        -1.30481074635121    1.47713926125344    6.68801571214072
H        -1.68708180300123    3.04284837929906    5.93470855348983

