78
CSD_code = FISROQ | q = 0 | S = 0 | Stoichiometry = C32H40N2RuS3 | MND = 5
Ru       21.19148183631000    4.27444511101253   21.87930590034222
S        19.25185954876580    5.55493940118428   22.14397705032077
S        22.00131063542042    6.07009546711423   20.44489024955467
S        22.41977975878515    2.86380795978226   20.39676620197605
N        19.74687006171821    1.74103474640219   22.27766607303525
C        22.24208983118366    2.47562653734852   24.69474250816022
C        18.71732556066978    2.10584016280036   21.36641187761593
C        21.80486615517475    3.11930167121030   25.85595502114531
C        23.47863466271535    5.53449078539188   23.35344216702656
C        22.17121797874227    4.97907852034997   23.35518999359634
H        21.64546872099481    5.10342372339081   24.30986457295923
C        20.63736516559700    2.58526141620820   22.81723862304280
N        21.27097137764636    1.94436955521295   23.80364010413779
C        23.89176360263111    6.39100956745746   24.39173709479767
H        23.18808640494618    6.63862370201165   25.17413089351411
C        16.61654603424287    3.18467424328301   20.96193343534037
H        15.76378185614598    3.73881979774646   21.32658262144750
C        18.77914077301709    1.70770138397464   20.02963798221353
C        17.77067081218234    2.12074248164874   19.16627492431318
H        17.82760795823638    1.83463066932004   18.12452145151815
C        19.67276016921677    7.13469432355576   21.33900195163230
H        18.72648073283859    7.64685981164853   21.15333940497792
H        20.28162640732226    7.72890114788120   22.02578175688271
C        20.41266793496727    6.88891986128956   20.04154868286787
H        20.64634094886382    7.82140619997165   19.52171874712562
H        19.83245247933750    6.22994648442678   19.38962300062184
C        26.07479350612478    6.59476347727428   23.41854643966105
H        27.07443956332811    7.00392160901919   23.44410661462863
C        16.69825541064087    2.87609903007568   19.60981193327718
C        22.32292351534656    5.15338561060482   18.89750672325960
H        21.93058004758658    5.74575813632752   18.06919944689849
H        23.40890063703328    5.08375974680925   18.81753003083637
C        24.51613981920948    2.85463668872632   25.33163130409472
H        25.57235027783907    2.75990873067542   25.12490808773690
C        23.60433943591543    2.31433631361227   24.43763097711514
C        17.60320848028416    2.80169028803359   21.85374734428025
C        24.10733245074196    3.52408313725602   26.47494794510187
C        19.86694083027167    0.80746784908180   19.52758219823055
H        19.98278986338318    0.90687793646478   18.45043623015476
H        19.61112733868918   -0.23171583949469   19.74053464729796
H        20.82011887465179    1.03029017709619   20.00567040283716
C        17.46683125256255    3.09635373093446   23.31538082651272
H        16.52118714275488    3.59178957475343   23.51425300094496
H        18.27216973987726    3.75401379021259   23.63831340323296
H        17.51476941894327    2.18030519632791   23.90304537019911
C        22.74845404876183    3.63481486417896   26.73039065533116
H        22.41527365156015    4.14676576040128   27.62237000791708
C        21.70809027680329    3.77283296799830   18.98264180062544
H        21.92209922455829    3.19059476009646   18.08317691450933
H        20.61716944257860    3.83090365852555   19.11276343852242
C        25.16517083618218    6.91558214498666   24.41625912049765
H        25.45936411141947    7.57881356790654   25.21834089232539
C        25.69673926809100    5.73485732597766   22.39706033207795
H        26.41017127435091    5.46909579470025   21.62959458876334
C        24.42312565980026    5.21172879479754   22.36098107775095
H        24.14406987923357    4.50182215007647   21.59387870305206
C        24.07948607720393    1.57970056320646   23.22548222679742
H        23.45946809551076    1.82623279274964   22.36566229183119
H        24.03073909724134    0.50213138709788   23.38571754888019
H        25.10856368619811    1.84369417945518   23.00027165013312
C        20.83502742756503    0.56116652093191   23.96709141927019
H        20.46326873798017    0.39476581052818   24.98320882019730
H        21.67422872958966   -0.11895577427176   23.79467195309082
C        20.33940371150335    3.29446113214677   26.11772212300141
H        19.86503518679925    3.76622803641016   25.25740581235568
H        20.17772982300286    3.91709917166591   26.99360224531848
H        19.85256841764649    2.33445638032741   26.28580216085134
C        19.74668173869840    0.42249890905758   22.90189106805063
H        19.98483226637859   -0.34725517827311   22.16240529998329
H        18.76094453360639    0.19918439099602   23.32356239510057
C        15.62275798412658    3.32907616912975   18.66897505973809
H        15.82814570904713    3.00325794325096   17.65212215787229
H        15.54489266965336    4.41567736678394   18.67885787580104
H        14.65824393525621    2.92567378389776   18.97527648089777
C        25.11977913652251    4.13802374941765   27.39230919717387
H        24.67563654065257    4.39792157102522   28.34986853443528
H        25.51755996356739    5.04570109354059   26.93802667894541
H        25.95171384602846    3.45737829587642   27.56110425244635

