40
CSD_code = FISTUX | q = 0 | S = 0 | Stoichiometry = C18H12IrN3O6 | MND = 6
Ir       11.29886826951800    1.86125520990089    5.19559405956983
O        12.55376160102390    0.24959661820792    5.36872301651513
O        14.71065222140651   -0.25167580051229    5.53137763362510
O        10.06711819388575    3.53262912326609    5.19456399044765
O         8.97322285935893    4.88808422948801    6.57890083508665
O        11.56354098153525    1.74186475367629    3.18542737451926
O        10.61227267837419    0.91006115269527    1.35838258643461
N        13.04017044937270    2.84700875321581    5.29922169027356
N        10.97933744942666    2.04062694691045    7.17774566227123
N         9.65582926925110    0.77169260173877    4.76335296803846
C        13.80211892871967    0.53691628800504    5.38555023118039
C        14.10040798764943    2.03137034005316    5.24656314579447
C        15.38867324460541    2.51066762498832    5.07345391570961
H        16.19818107058926    1.79801148462892    5.04347438133403
C        15.58079291978036    3.87462218381489    4.93148430353656
H        16.56973890959734    4.28007393549125    4.78111808052056
C        14.47316039173223    4.70938582881241    4.97474523503539
H        14.57410028009912    5.77648232098087    4.85847896232987
C        13.21753700346147    4.15603775566349    5.15789236731011
H        12.32795025019873    4.77012615702877    5.18016466775610
C         9.67928826944461    3.93070536282718    6.34412982905260
C        10.19534052731969    3.07576079208492    7.51139254223896
C         9.86100671469068    3.35274422328332    8.82728231226432
H         9.22550944542394    4.20308341114117    9.02045888775765
C        10.35099690494673    2.53360941460509    9.83048674568038
H        10.11018413417140    2.72225517412429   10.86543962656457
C        11.15659622714677    1.45991925453018    9.47483822098467
H        11.55687839356796    0.79243433173046   10.22096572363877
C        11.44800771596411    1.24609804452264    8.13926106848230
H        12.06325789304311    0.41641874965636    7.81905716275598
C        10.65846938074562    1.10334833658788    2.55331862862858
C         9.54397405186341    0.54436072055948    3.44942279645591
C         8.47885903103890   -0.15975471258121    2.90860076581818
H         8.46001316545422   -0.30056987191911    1.83888809531660
C         7.49562608209171   -0.64499339027485    3.75164649263952
H         6.65165180130748   -1.19412336045456    3.36303712923900
C         7.62067303839868   -0.40839373965242    5.11343007912488
H         6.88172791106153   -0.76667182770840    5.81234832465103
C         8.71389980414246    0.30154956090285    5.57632163361810
H         8.83320454858975    0.49638201798075    6.63345882779967

