55
CSD_code = FISTEI | q = 0 | S = 0 | Stoichiometry = C13H33N8Ta | MND = 6
Ta        5.58780828187075   12.24167076733934    3.56083602614918
N         4.65529302463104   11.21227777926621    5.38312181348150
N         4.64059801776975   13.42977724550269    5.29820207805565
N         6.24988736377226   10.59038933332701    2.62221103879792
N         6.23857406684398   13.81362292335592    2.48641021154084
N         3.81955051930328   12.20036925197455    2.65187050484872
N         7.25874441177622   12.30191753584276    4.75129820170280
N         7.54856972026197   12.43858272271758    5.87525930381136
N         7.87096578096844   12.57693649651604    6.95393851526156
C         4.35160845873358   12.34360430074963    5.96523517100844
H         3.88379140199128   12.37844737950708    6.95370943047024
C         4.42168299552804    9.94610688092121    6.05426201025457
H         4.72886223492241    9.17444862946521    5.33586813887011
C         2.93996696941539    9.72583294731333    6.38425808329570
H         2.33460863832385    9.86703935605092    5.49176322471412
H         2.60328023690182   10.42523324379564    7.14591524193979
H         2.78759605288701    8.71502508446218    6.75538620737615
C         5.28596167085061    9.80326993238882    7.31313899166940
H         6.33194679603580    9.98078208992034    7.07342431149438
H         5.18518339547548    8.80284153024170    7.72766663394480
H         4.98678249475778   10.52476953451049    8.06982839789280
C         4.36194790093466   14.73996001039499    5.85978938809843
H         4.70989813083222   15.45951233559579    5.10695209434319
C         2.86016373270522   14.96588573547630    6.07535807010908
H         2.31802705820033   14.77383149330262    5.15232549054830
H         2.67792668859481   15.99309660764904    6.38255185022759
H         2.47628814370243   14.30228390990490    6.84691901596187
C         5.13882765953261   14.98811805258638    7.15879390960612
H         6.19240699536275   14.75599744676825    7.02022604154456
H         4.75891333113171   14.36183283730642    7.96257529853219
H         5.04438450155006   16.02922492754952    7.45865089217952
C         6.08037181936865   10.26586194534660    1.22446373392792
H         5.69444595874275    9.24459193848394    1.09584548631163
H         7.03642282269012   10.32825463043140    0.68597338694028
H         5.37987982769423   10.96234714305352    0.76852940289300
C         7.02133036244415    9.55160723633099    3.26670567885659
H         8.00301361148506    9.43546223319090    2.78743475403522
H         6.50654002684503    8.58137887527655    3.20869772965528
H         7.17594842524437    9.80230777876382    4.31415907914215
C         6.14154113692859   13.97696389468640    1.05411393273266
H         5.73929232224242   14.96570088625481    0.79128802593501
H         5.48545055471229   13.21335171273231    0.64175446508044
H         7.12810268489543   13.88440222298945    0.57857770629833
C         6.94581071801502   14.93930828802527    3.05339953041651
H         7.95311616706258   15.02821652765127    2.62347013816376
H         7.04021902663073   14.81395575633842    4.13029977233084
H         6.41579257298400   15.88232493662906    2.85447387488309
C         3.01041207492374   11.01667522590818    2.49452833035370
H         2.62315754618614   10.92731469031937    1.46881696752281
H         2.14078139372644   11.04192418461779    3.16852518652749
H         3.60327207824307   10.13434698351755    2.72735752983982
C         3.02825535449378   13.36243778072774    2.33026169850254
H         2.65211860002260   13.32043686596657    1.29740378391739
H         3.63122728579193   14.25993561103311    2.45170227193392
H         2.15185095305964   13.43710433002202    2.99167194606772

