59
CSD_code = FISVIO | q = 0 | S = 0 | Stoichiometry = C24H28Br2N4Pd | MND = 4
Pd       17.17957547251497    0.17614321056091   12.94053507460681
Br       19.08306350625582    0.94044382978073   11.60053282021232
Br       15.25394477279839   -0.59015240121895   14.24684710114209
C        17.32539381656669   -1.61200190297729   12.04617752835227
C        15.36236519251163   -1.48543678557504   10.56309837609364
H        15.27714088433696   -0.52655010304928   11.10560808991125
C        14.12031139374458   -2.32162772494794   10.85451150136894
H        14.02931677172951   -2.48977090012472   11.92545106724968
H        14.16575758337222   -3.28253193346524   10.34646683561214
H        13.23519700347676   -1.78983728296725   10.51682583006939
C        15.54522786216146   -1.20832049222912    9.07311929770931
H        15.65228266833819   -2.13685961966273    8.51627051680259
H        16.43273231905285   -0.59928747095523    8.90961703074323
H        14.67948031991122   -0.67802387353917    8.68661914555968
C        17.04133887478457   -3.35220037219939   10.69099235963031
H        16.57075966817966   -3.95284994385804    9.94103306764162
C        18.16357381721468   -3.57976145605361   11.40929525906940
H        18.83567754762525   -4.41276501049397   11.41222153189257
C        19.37932551196183   -2.30737609310270   13.15573347001865
C        20.68168199147522   -2.61927458598428   12.78621077168479
H        20.88235146258122   -3.00115660006462   11.79655654890874
C        21.71615579854273   -2.40647052595709   13.67852384420234
H        22.72874382773921   -2.63860087891009   13.38573534253080
C        21.45662663549384   -1.89152857899304   14.93742528969227
H        22.26712971848848   -1.72849810778598   15.63169965629925
C        20.15700475861421   -1.58907214021759   15.30712464695858
H        19.94990257129218   -1.20800913411904   16.29578841393152
C        19.11102098639075   -1.78587418730224   14.42011610460380
H        18.08343489214547   -1.59314033933982   14.73157338134685
C        17.04580910144654    1.96748228495683   13.83539921487324
C        19.05989826200008    1.86079131978894   15.25404168294018
H        19.11113824919972    0.87975749057345   14.74779677154681
C        20.29075256512326    2.67498223938827   14.86717990311580
H        20.27233535996790    3.65797294161585   15.33277255243059
H        20.33270508422637    2.79471005728724   13.78690779652189
H        21.18843161908656    2.15338982237523   15.18702199277015
C        18.95454319078252    1.64604493463109   16.76147041935211
H        18.06726504580764    1.06166723541227   16.99864998200906
H        18.89610354975309    2.59749169701888   17.28572613149836
H        19.83184861238929    1.11459338536669   17.11937799421056
C        17.37673566424282    3.72378899900265   15.15990559519857
H        17.87240198510223    4.33228652630963   15.88700352629555
C        16.23340572950297    3.94598583461873   14.47412477918186
H        15.56353393484736    4.78075067291605   14.48158782369365
C        14.96063621660666    2.66049690564121   12.78121833565152
C        13.67216507917050    2.98110096290763   13.18971757857900
H        13.50523075302756    3.37257131626206   14.18191467487558
C        12.60851785899536    2.76369792814681   12.33374822326655
H        11.60674342025599    3.00206666273111   12.65711371302511
C        12.82549898890249    2.23491866278206   11.07260480734929
H        11.99223775123815    2.06681438527041   10.40713675655077
C        14.11137248538787    1.92388201068341   10.66404346023675
H        14.28368825724457    1.53102769317555    9.67331415192820
C        15.18646795609395    2.12657471653636   11.51400826380333
H        16.20375452433007    1.92640505705961   11.17289695486989
N        16.54583270296779   -2.13763774055754   11.09091667840751
N        18.32155616067606   -2.50303951315400   12.24647269115200
N        17.85599702460508    2.50267936789253   14.76024993405491
N        16.04697523773579    2.85993754811592   13.65516770675681

