101
CSD_code = FISVAF | q = 0 | S = 0 | Stoichiometry = C50H42ClN3O2P2Ru | MND = 6
Ru        5.27645473323649    8.01832089312955    4.53312020537433
P         4.31282440414745    7.81737864291689    6.61951991477832
P         6.13927307791417    7.78546671124438    2.40578983286612
Cl        6.84742632370115    6.33220617179977    5.22901315230428
O         3.52648368277062    6.97378491049923    3.75230842631741
O        -2.13589243942397    6.47500709312851    0.93825866864846
N         6.47757340390462    9.56772630584735    5.05411715970435
N         4.13307403153164    9.42205129071574    4.03396552936229
N         2.94738561518898    9.17996480979346    3.50047274645857
C         7.69682088015450    9.57709001698738    5.57561502382485
H         8.14022480187116    8.60638400492964    5.75548833931085
C         8.37602256948887   10.74183506882555    5.87912858018839
H         9.36598700589455   10.69292021713077    6.30135437438574
C         7.75760087631851   11.96361184963100    5.63037331271534
H         8.26099236308577   12.89092422458712    5.85862387462645
C         6.49219833096109   11.96952907262734    5.08741046186189
H         5.97373063416338   12.89215366798628    4.87698340841659
C         5.85506644722236   10.75442019738110    4.79814955597398
C         4.55720001459629   10.64671438292184    4.23217771163099
H         3.95005627195098   11.50266315918071    3.97100644806244
C         2.71826713274373    7.87736816119817    3.38205414184102
C         1.44351544913856    7.49218556534529    2.76251579509677
C         0.51294421176909    8.45817474594883    2.38012015308846
H         0.74150358257808    9.49499127305432    2.56458336156599
C        -0.66513159499781    8.08315752555243    1.77999460152707
H        -1.39773550069477    8.81433369946378    1.47580335057826
C        -0.94561673468123    6.73303725042497    1.54353013209713
C        -0.02021690174016    5.76699488162515    1.92746530530993
H        -0.20869906014376    4.71803665311592    1.75931779949414
C         1.16143772391754    6.15125869956397    2.53183551486272
H         1.88530688263636    5.40713701447928    2.82910969686357
C        -2.47980978516384    5.13805107243706    0.66485952484075
H        -1.76029166621493    4.66828768802980   -0.01349968374004
H        -3.45528647895625    5.17739936218041    0.18258942227034
H        -2.55423392287917    4.54602302887587    1.58269136264988
C         5.11926828353960    8.61885610364543    8.03993780065429
C         4.50027937682644    9.47673310843718    8.94110687110304
H         3.44649707554114    9.69894757888861    8.84923045424963
C         5.23484420530238   10.03408913257699    9.97387941929757
H         4.75127458310747   10.70119753890578   10.67328843591357
C         6.57982305131387    9.73686345979125   10.11696245600763
H         7.14651442356315   10.18117013544319   10.92228734817676
C         7.19281654702745    8.85931996396412    9.23637465858672
H         8.23672087055452    8.61045442057906    9.35809906792454
C         6.46640885922423    8.29964286899579    8.20317510057184
H         6.92182753869717    7.59396483607229    7.51958638246180
C         2.61843919248362    8.47746297432586    6.56068086825212
C         2.42585245453146    9.85778569069285    6.51350456199953
H         3.27010380823442   10.52133093042225    6.65652701720373
C         1.17072954382657   10.37629426517893    6.26058192751929
H         1.02936037333174   11.44702953699975    6.22634762349331
C         0.10054439517294    9.52686414077858    6.03005499371979
H        -0.87599474972967    9.93415703594245    5.81392122769229
C         0.28741660832502    8.15588830630906    6.06232223331718
H        -0.54193760223373    7.49164695581810    5.86726483692488
C         1.53985916534784    7.63081277037249    6.32489514980092
H         1.68851108355761    6.55946469758603    6.33434524813067
C         4.06920721375787    6.12965569155615    7.25283148598074
C         3.94932904508664    5.87669516023330    8.61558917835909
H         4.01513228592929    6.68985235032032    9.32517372975751
C         3.75436674906629    4.58164574343489    9.05962368195107
H         3.66623111728515    4.38617610470445   10.11870418244629
C         3.67838282699204    3.53674526460715    8.15292698841247
H         3.53433513436384    2.52608698643183    8.50666890174370
C         3.79129446733021    3.78687098583957    6.79534165778403
H         3.73502777431625    2.97178836837325    6.08855169033578
C         3.98573192207190    5.07944012647201    6.34486735363865
H         4.07982408042069    5.28821967331308    5.28771847514083
C         4.94657997760451    8.41216515009768    1.18265922231973
C         4.74720587849378    9.78816338404474    1.07707766187541
H         5.39447991695170   10.46501206659832    1.62188431063886
C         3.71526417052642   10.28463451510734    0.30487368648155
H         3.56676391038396   11.35214555233385    0.22913637601547
C         2.85933367331086    9.41592115487923   -0.35301892412568
H         2.04118321346896    9.80495094409609   -0.94068580683194
C         3.04500264636616    8.04890316043723   -0.24401807894089
H         2.36999269346075    7.36955366218357   -0.74393792166273
C         4.08222781471672    7.54616991534007    0.52081177492852
H         4.21610546199427    6.47740452657201    0.61812827464248
C         6.44999345564009    6.08919286698189    1.82674197478000
C         5.73984895892534    5.04202614176359    2.40388519528892
H         5.03310307981635    5.25718779639702    3.19370182583765
C         5.94526840633859    3.74423068311073    1.97364086423883
H         5.39866759360822    2.93162958568682    2.42972641866059
C         6.85862409529223    3.48589868059832    0.96500599870250
H         7.02561680747230    2.47135211429760    0.63314335937265
C         7.56251568837795    4.52773917340436    0.38284865403724
H         8.27464035147505    4.32579432019977   -0.40437301284308
C         7.36214445629398    5.82791553210852    0.80912567356364
H         7.91665951792553    6.63907389275607    0.35777698585067
C         7.72530156236323    8.58863271973030    2.01972628930833
C         7.95562478312215    9.46040030812011    0.96260396329206
H         7.16420612444256    9.69626023261656    0.26525888981820
C         9.21299667054319   10.01446999471179    0.79161703731897
H         9.39017944417589   10.69173357627600   -0.03175325815379
C        10.24151709796018    9.70123659605127    1.66428115425872
H        11.21814289488968   10.14165001013708    1.52537637488390
C        10.02036925272382    8.81375908196726    2.70594537185389
H        10.82571386282500    8.55436715961355    3.37723764851197
C         8.76861928034793    8.25731205931777    2.88310321224639
H         8.58192918726674    7.54517122435346    3.67745059064403

