59
CSD_code = FISWIP | q = 0 | S = 0 | Stoichiometry = C24H18F10I2N4Pd | MND = 4
Pd        3.18201441401915    1.37240731237950    4.99597610916847
C         4.22538507668721    3.12302719206325    4.98981558501498
C         6.13196527605028    1.95784923790275    6.08807465323730
H         5.31064110391499    1.27478329537730    6.38910786705181
C         7.07297627397594    1.19714841918229    5.15632580805712
H         6.52706411562362    0.78806251954726    4.30879373100964
H         7.52580442853963    0.37066894292869    5.69672290978137
H         7.86068094281392    1.84614174046327    4.78036470278305
C         6.86882721817916    2.46189899625339    7.32652395182331
H         7.78161927769288    2.98277654890477    7.04669118185165
H         7.14166402814880    1.61760121419555    7.95303328033217
H         6.24722130986118    3.14013673503477    7.90780026381906
C         6.19436396333877    4.17165507865789    4.91987766896517
H         7.23298368874222    4.33089885534220    5.11854498303804
C         5.32627088001708    4.92541030720153    4.21763770107464
H         5.46366888628945    5.85318425304472    3.70488689129556
C         2.97056409367146    4.62887255936765    3.54629037516459
C         3.04817959076155    5.11420444084931    2.23581376622350
C         1.90050554963857    5.40862067479618    1.50768134750621
C         0.64143334660744    5.21160750972748    2.07063075807686
C         0.54458440901556    4.73791900506475    3.37470994038313
C         1.69851823676768    4.46320118862029    4.09537292934862
C         1.90784838778020    1.59253858370729    6.54164353170569
C         3.20553728995890    2.62974529112929    8.36721974269204
H         3.86587082375685    2.89963833934619    7.53290183011805
C         2.94780001376227    3.87268681695561    9.21127675094249
H         2.36029539511448    4.59778049918074    8.65213765627870
H         3.89620561074692    4.33054379888538    9.47982114205290
H         2.42468086502297    3.62597966889758   10.13151567530934
C         3.83618764966200    1.49843336075440    9.17948426402584
H         3.16946938592860    1.19246919419961    9.98277056925962
H         4.77711980852279    1.82229963623496    9.61414716652793
H         4.02196640156047    0.63530994801961    8.54156646809212
C         0.77549689793455    2.04564436982803    8.40679227470931
H         0.61563574260861    2.42211907037481    9.39424026652723
C        -0.08021129768852    1.42343698433964    7.57340391135596
H        -1.11273644670716    1.17194640679876    7.69263950569038
C         0.11026171641075    0.35207033410820    5.38398368945012
C        -0.58923801739886   -0.82614765845624    5.66515212344499
C        -1.04949494385363   -1.65275487793231    4.64727978916960
C        -0.82559979880783   -1.31662633958502    3.31337379434028
C        -0.15660532160190   -0.13424722503816    3.00709916577123
C         0.29693941415442    0.67788443412405    4.03945967554032
F         4.23643659864304    5.31288855563457    1.66834073430184
F         2.00615939975210    5.88355008020618    0.27095859075538
F        -0.45716726559770    5.48980474691143    1.37550691960673
F        -0.64820199778118    4.54905312301772    3.94195346710589
F         1.58330524832108    4.02744127152389    5.36228620619856
F        -0.81175961526261   -1.17637444397372    6.93341298725958
F        -1.71644323277975   -2.76219510959711    4.94997882015261
F        -1.27748825882852   -2.10142305895391    2.34268863269588
F         0.02450247230885    0.23518118287958    1.74559572160879
F         0.91385618024169    1.83808677877544    3.73193229414746
I         4.11372545689214    1.17457593124750    2.54349417424187
I         3.06994136408865   -1.24238555335164    5.41756588775427
N         5.51163905149104    3.07309831843309    5.37990160369958
N         4.10882870232107    4.27408783560849    4.26767739666044
N         1.98274781886225    2.13968345714343    7.76039254097321
N         0.62285239010896    1.14480022171597    6.42142862484330

