59
CSD_code = FISWAH | q = 0 | S = 0 | Stoichiometry = C24H26F2I2N4Pd | MND = 4
Pd        8.58570671007308    9.20701966695859    3.73514721466892
C         7.24695499070235    8.22172695625177    4.84797862101128
C         6.45866778064466    6.43327591087944    5.93003598613555
H         6.37624133354934    5.40110688821091    6.19996419952745
C         5.85010399459174    7.52843501563237    6.43254530306083
H         5.12236597487532    7.61504170749593    7.21127967274083
C         5.96315155627130    9.99271089231645    6.01284683095913
H         6.62402934105521   10.60990955258965    5.38649010197935
C         4.51098631960896   10.21294485264676    5.59660694895290
H         4.36739680714761    9.95278644583733    4.54916105026083
H         4.24516338438685   11.25694328036484    5.73347627347489
H         3.84205872144056    9.60426576983914    6.20154268616609
C         6.19147790490337   10.35737279659021    7.47596100855484
H         5.51421915375769    9.81298650244737    8.12952604907360
H         6.02103223604964   11.42156791182117    7.61230691668380
H         7.21580584563113   10.13668805940625    7.76579501573931
C         8.14211595643300    6.02668042924363    4.17253991526596
C         7.59785376846723    4.85389303708254    3.65781491594670
H         6.57151356893835    4.59605200935075    3.87299843007067
C         8.36220988158778    4.02547201977317    2.85831587384118
H         7.95596425110120    3.11290100506046    2.45213075982900
C         9.66811895810329    4.38728659972505    2.57385858437230
C        10.23841584251275    5.53629154102605    3.09253912244386
H        11.26389940733350    5.78341776947279    2.86705690574204
C         9.47253310529550    6.35931507955469    3.90254627974330
H         9.94975847258539    7.22309501103536    4.36882729115583
C         7.46421409802112    9.40541126789753    2.09060308283911
C         6.29100007780866   10.56557194514990    0.58451100966271
H         5.75614616719530   11.40002886716286    0.18121237542682
C         6.64020246428546    9.38736494866950    0.02585201687743
H         6.44304460750470    9.00447821608870   -0.95295658923701
C         7.93952132798826    7.37558045303395    0.75089053580583
H         8.53786765352066    7.16178380947721    1.64874575618899
C         8.86131808740154    7.37943646129717   -0.46415652173015
H         8.30114291681311    7.52410878126766   -1.38469313760918
H         9.38177620171767    6.42777166218448   -0.52346519296504
H         9.60389040539340    8.16857410752150   -0.37440270771001
C         6.83051150100541    6.33523352767372    0.61515136284917
H         6.18755898113632    6.34051911707517    1.49391961686120
H         7.26723137688701    5.34641637101407    0.51189781846012
H         6.22129828774077    6.53690199223543   -0.26348094251789
C         6.64966315129517   11.62658078767169    2.78306455086695
C         5.40015759137387   12.22613913947909    2.90916688057844
H         4.57747564395110   11.89242280141131    2.29434689072630
C         5.20413314179271   13.23674547004962    3.83111502522237
H         4.24258407854037   13.71238781062553    3.94079934779363
C         6.26529887036387   13.63180068046560    4.62805145517298
C         7.52241199227409   13.06698572680896    4.50503819689031
H         8.33455111581912   13.40775524661708    5.12783298309800
C         7.71831681775897   12.06148014970974    3.57199567117071
H         8.72802157342823   11.67284308140398    3.42782374418949
F        10.39926653970793    3.59018626964334    1.77500232765125
F         6.06252208481581   14.59886852443584    5.54007801638922
I        10.64940944140015    9.73739050524115    2.16658322235209
I         9.81915242054500    9.73204043799537    6.01691039500284
N         7.32817396170406    6.87220754521317    4.95914907076595
N         6.34441940471712    8.61555416287145    5.75753746538866
N         6.81388744271148   10.57267114125783    1.85647977779104
N         7.35808530633168    8.68857228075642    0.96290453833619

