123
CSD_code = FISXUC | q = 0 | S = 0 | Stoichiometry = C91H24N4O3Ru | MND = 6
C         2.80185301638933   25.28702110806690    5.15711035534599
C         2.87066737578587   28.17234222556862    6.84361900893580
H         2.46750875067715   28.17723775282162    5.83659226312496
C         3.26223240207163   29.35112982963292    7.44904485367090
H         3.16278128752568   30.28527020075838    6.91904772301176
C         3.77538600780333   29.31313230191254    8.73836895938903
H         4.07657379039469   30.21761502995566    9.24365369863943
C         3.90683373823762   28.07520774331849    9.34786786166614
H         4.31980256601167   27.98297385606957   10.34046893638167
C         3.50355682078485   26.94340609915455    8.66256667403077
H         3.64063966197212   25.96304478928888    9.10408619328938
C        -0.39418519683909   26.39219022562314    5.16111269890175
H         0.08658085348426   25.81869412584413    4.37637954206309
C        -1.67105582472963   26.89241421352419    4.98704430508523
H        -2.20327833845102   26.69974551087039    4.06872143184270
C        -2.24998291195263   27.62911652385287    6.01020012948372
H        -3.25018954175643   28.02308399283386    5.91063254067634
C        -1.51110942595557   27.84253762270829    7.16020830082498
H        -1.91064744329474   28.40026534377231    7.99185786638066
C        -0.24054551112708   27.29916561363111    7.24998105177650
H         0.33932922490892   27.44824242617005    8.15231322170645
C         1.64270570211869   24.28241745673366    9.40554357505567
C         1.00049183364115   23.87656005031048   10.73340769479584
C         1.76348009620935   24.32382245496552   11.97098333917900
C         3.11261183750448   24.65205698476850   11.94399236750837
H         3.66423008021146   24.62186077503168   11.01567859836396
C         3.76680529200578   25.01409558687249   13.10861564975739
H         4.81616672829913   25.26889609140077   13.07270880483788
C         3.08558904616781   25.04368404909964   14.31256891202443
H         3.59876718410337   25.32684126207057   15.21935389576832
C         1.74531526303762   24.69790529092939   14.34861969632579
H         1.20828127297851   24.70554381257798   15.28533365203139
C         1.08935076932318   24.33519108191916   13.18719475321442
H         0.04621289855016   24.05457376483539   13.22100121146782
C        -0.42983821745169   24.40341000737084   10.76283073047942
C        -0.64609475822038   25.85670024911735   10.85403011969497
C         0.39235735467497   26.78357715693588   10.92581915101939
H         1.42211062889908   26.46554142612321   10.96699978930727
C         0.12366452710437   28.14061016927887   10.94294743184432
H         0.94330328440968   28.84513439444551   10.98916430281402
C        -1.18163133983233   28.59922406646019   10.90199921691084
H        -1.38456769661338   29.66080166388080   10.91645987770550
C        -2.22331911552228   27.68613454118685   10.84575420412553
H        -3.24560322102403   28.03570667948546   10.81801192952552
C        -1.95816116077519   26.33256914544039   10.81959097956938
H        -2.75544650635733   25.61046083492168   10.75921500862899
C        -1.43745609070751   22.25348477895492   10.55435634322796
C        -2.47624690555539   21.76427686690449   11.55858590468943
C        -3.81919544418148   22.06705336988201   11.36293475568437
H        -4.12170346453802   22.63307977794834   10.49618230208027
C        -4.73237852406290   21.62601270244144   12.30326941875071
H        -5.78593080928381   21.83615874653365   12.18586214726899
C        -4.27280210809726   20.90824061787971   13.39806029781334
H        -4.95281135286165   20.54437664652132   14.15254164374512
C        -2.91183219209206   20.67242386419943   13.50008556518431
H        -2.49490563792767   20.12389887420051   14.33476107016648
C        -0.10008191165942   21.60400846850885   10.78287712911144
C         1.03155695221804   22.36331676830242   10.77684957790820
C         2.29684173727128   21.73566563584780   10.55718360845204
C         3.15721774117031   22.32151718153570    9.57077038520497
C         2.69649786938147   23.48476204952920    8.87531018675348
C         2.91413341323225   23.69511219849393    7.49553593106248
C         3.44058435827148   22.58469393532700    6.76051631261130
C         2.80538891631641   22.16439598096319    5.52046838016183
C         1.45914805087811   22.66055981857582    5.23299902504061
C         0.85996780875572   23.67790443367047    6.09821197928535
C        -0.47742559392076   23.50274220382157    6.41210997741633
C        -1.23319839150569   23.85255028145496    7.66557169352571
C        -1.88638883000441   22.53004714305729    8.03977437386513
C        -2.11478826230202   21.88849587893541    6.78279152656308
C        -1.25363139383986   22.47259056709630    5.80890867702848
C        -0.77696389459180   21.72763424355402    4.75794761554681
C         0.62476124090008   21.82226646039616    4.47366466522105
C         1.01699607968394   20.53579133997228    3.97922020332175
C         2.29428356467189   20.08778102157244    4.23278522169276
C         3.18687336507148   20.91400792476825    4.99894841253447
C         4.05103312578789   20.00806750700978    5.71090979617342
C         4.53510558017230   20.36476868892936    6.95313440004637
C         4.20536168020832   21.65253020906411    7.47329224112422
C         4.06979290134224   21.51865310087667    8.90077132994395
C         4.24246129473600   20.13354691840783    9.23255554682964
C         3.40558210241525   19.55761278302193   10.17694667319114
C         2.38615296386363   20.36747921964533   10.78222537130304
C         1.19410893750233   19.58190796932907   10.87991094977259
C        -0.04797395631367   20.18212428279942   10.66875409728053
C        -1.04837751408320   19.49029865808116    9.88582067541436
C        -1.91605949413641   20.30868296333681    9.05431755949600
C        -1.84696895412210   21.75509926374539    9.17461876257930
C        -2.36523821526911   19.75300502749939    7.84897205282086
C        -2.46696516564656   20.56324377726877    6.67289781307833
C        -2.05621223523198   19.79088886892465    5.52763752447241
C        -1.21589207069665   20.36947048953520    4.57893636949291
C        -0.10191817268992   19.62704374987041    4.06182063778879
C         0.10607347665689   18.30925127920782    4.44962394763642
C         1.44518477307922   17.83552852049536    4.68967999059471
C         2.52200325964287   18.70305839660670    4.55345272457207
C         3.61740842094255   18.65351159869813    5.48110414164806
C         3.60511976294580   17.73691396933225    6.52683714416884
C         4.07766190661614   18.12612316871216    7.83122850908228
C         4.56136191699357   19.41141093778791    8.03182022844329
C         3.21181580103266   17.52637409059677    8.81618778789641
C         2.86935757997749   18.24414557103879    9.95469600298401
C         1.49983408378139   18.26803696325181   10.40160688996659
C         0.52716128413033   17.56842771124392    9.71864600618541
C        -0.75579998774648   18.18030102188375    9.47474576153321
C        -1.22315601401240   17.64944997183632    8.22260960367798
C        -0.19968996961980   16.81590486568240    7.64671978352071
C         0.89206615242259   16.76678528302699    8.57861374032026
C         2.20513087200867   16.76778916144173    8.11952208159902
C         2.46291308920602   16.87431438296193    6.70412014119268
C         1.40616836352160   16.92156530451905    5.80404097387661
C         0.04625996084376   16.86812903501276    6.27978626094437
C        -0.76087239145449   17.70973365072850    5.43331867466069
C        -1.79843085080430   18.45413299818905    5.98240154059136
C        -2.01197150525128   18.43554560764425    7.41015516910229
N         2.96342545690605   26.97893247761182    7.44157154018793
N         0.31640854123189   26.58444242924658    6.27542963257897
N        -1.45997611758095   23.67826484936510   10.65766956430570
N        -2.03339634357619   21.09071393559929   12.60527282701475
O         3.36336130373645   25.27434941001150    4.15187746010266
O         1.15508292181057   25.19321932554720    8.70899333878371
O        -1.37092629611386   24.93488203584665    8.17470116466587
Ru        1.94498436475635   25.27553325714159    6.77695872825672

