115
CSD_code = FITDER | q = 1 | S = 0 | Stoichiometry = C54H50MnN6O4(1+) | MND = 6
Mn       10.99653629587643    8.58346319344118   -0.00006474296139
O        12.62053764624832    8.97547250223045   -1.05617837387613
N        13.50540040878712   10.00298020674195   -1.24352390749925
C        14.33105373497693   10.22699568796443   -0.02626810287316
C        15.16074882384347    8.97514856373964    0.27205057561467
O        15.98686374175184    8.64407627624122   -0.81436566268164
C        15.20870727825718    8.36907780316050   -1.95039906050738
C        14.40614615310088    9.60478383976754   -2.36211015335233
C        12.79497258398595   11.24316505725971   -1.60424143271407
N        11.07534481178996    6.88383588383697   -1.07821989383189
N        12.12726814941767    7.73164970119471    1.43785036040386
C        10.52794198785361    6.66693257489921   -2.30934489600154
C        10.90858482075121    5.36796429429144   -2.79803089059200
C        11.69844173360756    4.81093575148764   -1.85376873506496
C        11.81163882115765    5.77076981879425   -0.78784955814399
C        12.55521123445201    5.55216096061310    0.36993203199733
C        12.68540068605636    6.48285733070770    1.40394470211163
C        13.49242056384548    6.27548974663972    2.56762084323423
C        13.41294769052670    7.40985985508578    3.30872686276148
C        12.55726469523464    8.31137535589961    2.59917252356678
C         9.73698830976451    7.56032030118466   -3.03011254350848
C         9.18562459454737    7.11461418629343   -4.32798350675529
C         8.28199954574847    6.05735571149516   -4.38364445840165
C         7.76285670943496    5.64214380933061   -5.59636904858445
C         8.14421731849145    6.27250340403237   -6.76902234838046
C         9.04498034519808    7.32339853450928   -6.72317773335889
C         9.55993477101135    7.74482027425281   -5.51081748875240
C        13.27182571817596    4.26405125336700    0.50954263741499
C        14.34365749020076    3.95893505581287   -0.32297843747855
C        15.01578230642853    2.75794010580952   -0.18514648013692
C        14.62159310721744    1.84666808567978    0.78025464049140
C        13.55435800244071    2.14280807058590    1.61164079223455
C        12.88477858801412    3.34594021950881    1.48052821400396
H        14.98752892134997   11.08127367874186   -0.20424455208246
H        13.65442992225639   10.43148232967997    0.80583312322916
H        14.48373630224961    8.14043819851376    0.49856163803254
H        15.81513449793619    9.15593625456923    1.12565835834596
H        15.89906629183535    8.08738555040661   -2.74634805834485
H        14.51016721621330    7.54322497747011   -1.75072506655329
H        15.08101004894582   10.43224342175610   -2.58843695144802
H        13.78063415540781    9.37465245442460   -3.22535988224718
H        13.50088071157454   12.03782665040868   -1.83844304447549
H        12.15933721998749   11.54093605081747   -0.77121200612738
H        12.16387357759575   11.03751785189587   -2.46830492332164
H        10.61719359160171    4.95860928397010   -3.74477657638166
H        12.16803755946647    3.84749573517656   -1.86452605825610
H        14.05603085907185    5.38805232264627    2.77659117781729
H        13.89926484960232    7.62411027578144    4.23955033473623
H         7.98006248949397    5.56664867637556   -3.46868670758585
H         7.05915450052964    4.82402450328755   -5.62637566656613
H         7.74101156742133    5.94566493932272   -7.71501981844345
H         9.34759407366345    7.81630010215611   -7.63482137372248
H        10.26788934100327    8.56044566597160   -5.47514803806890
H        14.65427579695606    4.67293380103352   -1.07248246204508
H        15.84983457525206    2.53348283067546   -0.83275816911180
H        15.14505047505141    0.90893601521956    0.88543808576424
H        13.24300457487423    1.43515004517443    2.36524926424446
H        12.05060073029638    3.57767833694871    2.12808784301866
O         9.37259747860056    8.19146029905402    1.05612899541271
N        10.91773710525226   10.28309991414502    1.07808286000129
N         9.86574877062016    9.43524052337380   -1.43795752516476
C        12.25569945847380    9.60643723753088    3.03018628113303
C         9.43550375708989    8.85541543629196   -2.59914299350253
N         8.48759241727306    7.16405818700652    1.24336823885858
C        11.46497177902844   10.49992597504634    2.30930088097616
C        10.18164255371012   11.39626465780127    0.78759654872551
C         9.30774253073747   10.68409282803126   -1.40411848896261
C        12.80677493349426   10.05199004563196    4.32823319318072
C         8.57976827754711    9.75691532387613   -3.30865155221552
C         7.66149028912346    6.94076534789526    0.02628814257711
C         7.58730912109661    7.56198824654756    2.36241909072773
C         9.19785365658342    5.92356108815065    1.60332842645444
C        11.08443954576030   11.79895406110555    2.79791508604041
C        10.29484022839319   12.35610533474246    1.85350937743317
C         9.43813401561327   11.61489318389382   -0.37022523472072
C         8.50055830351164   10.89139820471152   -2.56769087093814
C        13.71049413873511   11.10914997411898    4.38423042019679
C        12.43209231129373    9.42170619441029    5.51090745660692
H         8.09325901457577    9.54259080902298   -4.23935776717611
C         6.83204134869074    8.19296685923072   -0.27122491852053
H         7.00484305336155    6.08658816565741    0.20410979055857
H         8.33779354378154    6.73645864774166   -0.80611806687804
C         6.78493056945356    8.79807674529929    1.95150874352599
H         6.91231190201435    6.73459827734862    2.58860208491429
H         8.21315621050912    7.79158533725531    3.22556643369346
H         8.49183899381189    5.12895703626573    1.83740353433637
H         9.83316482420500    5.62601040493802    0.76997648904524
H         9.82926648178373    6.12869051436737    2.46728332155035
H        11.37573431017748   12.20827294942181    3.74470595822624
H         9.82539627009676   13.31962036547757    1.86417793810236
C         8.72174598086569   12.90311305691167   -0.50999071053787
H         7.93701038495048   11.77887057744877   -2.77668135886654
C        14.22935425153768   11.52419778549793    5.59713327728533
H        14.01273101014871   11.59990127540727    3.46939625670632
C        12.94676402572772    9.84296448499020    6.72344492661024
H        11.72407675918224    8.60614400214489    5.47496965576573
O         6.00635516711668    8.52378445658457    0.81559270059097
H         7.50921433768734    9.02759136247657   -0.49758559608635
H         6.17734067032689    8.01272911255263   -1.12470529902305
H         6.09488724273675    9.07958372669275    2.74779575742700
H         7.48361589864936    9.62384449620042    1.75199415433821
C         7.64994569719442   13.20851899948663    0.32246396942342
C         9.10898327094412   13.82103484936525   -1.48107974268034
C        13.84761617013090   10.89376937430945    6.76962681630277
H        14.93313416538355   12.34224048073797    5.62740406103264
H        12.64386285759238    9.35000384650353    7.63496149836098
C         6.97804674161929   14.40962215979314    0.18447412076144
H         7.33917107031520   12.49465844040691    1.07203410565175
C         8.43962982939381   15.02427519066523   -1.61234986207770
H         9.94312610235669   13.58905874366187   -2.12860040711044
H        14.25060223997196   11.22048015692138    7.71576247247815
C         7.37243137348147   15.32070989548543   -0.78102141278569
H         6.14401609132827   14.63430853188565    0.83203404837156
H         8.75112840233268   15.73178678730371   -2.36603580332642
H         6.84915054683564   16.25852666294638   -0.88632670156494

