57
CSD_code = FITDIX | q = 0 | S = 0 | Stoichiometry = C18H32I2N4Pd | MND = 4
Pd        1.73258484898923    7.39607408332862    8.18322310153465
C         3.07558442091591    6.69627793365680    6.87992433649678
C         3.99542456908988    5.69365088013114    5.12882103526566
H         4.03568471434238    5.13860209592963    4.21491344828330
C         4.99411083245618    6.22198748457853    5.87392633885377
H         6.05287737875615    6.20535696859597    5.72009708022578
C         5.06871460467947    7.54340446194226    8.03058652355780
H         4.25194223325307    7.90511836822450    8.69445625543255
C         5.95938592990471    6.58861114783240    8.81976493131007
H         5.37556571506173    5.74694039481579    9.18817080094932
H         6.39479764210744    7.10579071734177    9.67053429677089
H         6.76523631529564    6.20887751875419    8.19533279128938
C         5.83315229153796    8.74668924216331    7.48753068920649
H         6.64093402660087    8.42669233768127    6.83288850725634
H         6.25894039556077    9.31650632943248    8.30903502235978
H         5.16370020158278    9.39620753456770    6.92640916392235
C         1.47507288148879    5.64384192685527    5.34862791091555
H         0.80155103282698    6.05889865815550    6.13144088229923
C         1.14486091721844    6.30399615607107    4.01342037863297
H         1.27579450044028    7.38234432783293    4.08407499825344
H         0.11247459505748    6.09832274342179    3.74371317892203
H         1.79138560845493    5.92379888474073    3.22541976909283
C         1.31254466140402    4.12749671107648    5.31060811542034
H         1.96142318388041    3.68922284026418    4.55539707310981
H         0.28354109386962    3.87107216239436    5.07348118530938
H         1.56185925891576    3.69763363037218    6.27908447357819
I         1.58308241551603    9.62027488088174    6.83417424556447
N         4.40698828490687    6.83659648380323    6.94956928607118
N         2.81968273972213    5.99629503555471    5.76560819018711
C         0.38950315595747    8.09565160282387    9.48655489832864
C        -0.53059468772568    9.09830210906157   11.23750855398451
H        -0.57099396734232    9.65340358076984   12.15137701592636
C        -1.52916660641912    8.56985533085319   10.49232741457130
H        -2.58795116685708    8.58643098069818   10.64604340266728
C        -1.60345282083818    7.24837804573828    8.33569517479028
H        -0.78658764950465    6.88663871255712    7.67195878069129
C        -2.49401668990587    8.20312347738555    7.54633321714103
H        -1.91015887589869    9.04478804801820    7.17796626437915
H        -2.92928840303535    7.68588555213990    6.69552771390920
H        -3.29996887302130    8.58287743567553    8.17061994418287
C        -2.36792871086826    6.04509229932075    8.87869130977245
H        -3.17583483136372    6.36508204869291    9.53318312773605
H        -2.79354653234798    5.47522506956354    8.05713473334733
H        -1.69853294123998    5.39563914348880    9.43996044099652
C         1.98977676986386    9.14831471986220   11.01794577046411
H         2.66339764369655    8.73334053692637   10.23516736082002
C         2.31994015480733    8.48816211671071   12.35317023506966
H         2.18912511755152    7.40980238857091   12.28246920284889
H         3.35227433790034    8.69394751318684   12.62299754757610
H         1.67328569645842    8.86826035872052   13.14111458144938
C         2.15213228149199   10.66468355504190   11.05604078921730
H         1.50316603547666   11.10284282263662   11.81124650404284
H         3.18109393233319   10.92123401754050   11.29323339262343
H         1.90280959842274   11.09457187003595   10.08757620386973
I         1.88196881862722    5.17183472763770    9.53218500090837
N        -0.94188530011529    7.95523591978725    9.41677705989837
N         0.64523722006190    8.79571407615428   10.60086034871734

