23
CSD_code = FITDUH | q = 0 | S = 0 | Stoichiometry = C6H12CuIS3 | MND = 4
I         0.54107674241978    4.94506482953580    9.00892780009958
Cu        0.71283611098804    3.42397709845524    7.07347176047050
S        -0.61684358782465    1.40005554462629    6.69111431106004
S         0.35572927264109    4.01091988176873    4.72063864895109
S         2.69523946580711    2.15749617144155    6.37357044157187
C        -1.46751371074189    1.92141130948619    5.15915457794661
H        -2.22164729185091    2.61883045830095    5.52598298687641
H        -1.96813712917696    1.04446378822122    4.74474553659566
C        -0.61656941021108    2.58593510152352    4.08842317800872
H         0.08139870904214    1.88809662767292    3.62899758580461
H        -1.27780448303908    2.97250809360236    3.31142965047305
C         2.03364285922289    3.65108432436848    4.09019034758207
H         2.61368939907787    4.50390897263211    4.44499471355804
H         1.99038377928223    3.68138026352885    2.99995834469746
C         2.67974142505022    2.35243909600583    4.54669733603779
H         2.18473221887726    1.47910419837855    4.12543737843421
H         3.72016670960760    2.34958467129706    4.21827737844588
C         2.02917259285406    0.46901601630745    6.59321847058275
H         2.05084110675831    0.33891793622299    7.67594395177415
H         2.73649570617186   -0.22701199832081    6.13880709591322
C         0.62902709060923    0.20504295170601    6.06241993087071
H         0.59218597062102    0.23144504906640    4.97470857349345
H         0.31425645381398   -0.78587038582767    6.39299000075209

