41
CSD_code = FITFOF | q = 0 | S = 0 | Stoichiometry = C13H23Cl2NSiZr | MND = 8
Zr       -2.95988777502913   13.11335563732375    9.53066327635354
Cl       -2.61149036243606   11.61887984173547   11.27524451964641
Cl       -3.24487906281255   11.64468751241707    7.75765156781772
Si       -2.02133866511472   15.97370752270333    9.20021422309716
N        -1.42949633114073   14.35490195509670    9.09812501896996
C        -5.06435131535395   13.75824319126986   10.68510476072952
C        -5.36147804716721   13.70275300882184    9.29417564288703
C        -4.56398801560648   14.67869904497205    8.64561958140073
H        -4.61317304725586   14.92661010146683    7.58966493949176
C        -3.78044891582169   15.36699558174399    9.61608683632506
C        -4.07989085714062   14.76081119949892   10.87382509377682
H        -3.70318609599545   15.09237179691043   11.83755558830048
C        -5.74509683808243   12.95152102061754   11.75581313611481
H        -6.78452291416436   13.26746853177652   11.86980284921499
H        -5.23930900922949   13.08228519937086   12.71209310633387
H        -5.74513803206217   11.88692852325526   11.50697398760713
C        -6.38391769428151   12.80594210978831    8.65317470453509
H        -6.21280298024316   11.75969257040567    8.92397328703260
H        -6.33618263546864   12.89239353111529    7.56801042136348
H        -7.39122733248740   13.07602143434621    8.97814209136706
C        -0.08951803481026   13.83261293662734    9.27291066107365
C        -0.08002161863373   12.37980935803528    8.74408741695087
H         0.93142412940035   11.97521264673961    8.76046208666875
H        -0.44673838446274   12.36524799456850    7.71214142288397
H        -0.71994473453132   11.73712803591163    9.36939190958456
C         0.93872397781696   14.66110765634705    8.49157587736753
H         0.95033173758810   15.68188461567169    8.86313794836720
H         0.66558261564885   14.68049960519662    7.43950916414704
H         1.93378754116593   14.23591162740936    8.59516933236631
C         0.26537285494946   13.82534718423021   10.77464073593456
H        -0.54087171817923   13.33965804434491   11.33857857041787
H         0.37440655552872   14.84690493476307   11.13155649649509
H         1.19676688133391   13.29131857825251   10.95038461882485
C        -1.95927924203353   16.92222493043777    7.53868199270022
H        -0.96897789513283   17.32257589911987    7.35079315841497
H        -2.65427020283900   17.75449067546415    7.53851455445381
H        -2.21549196918076   16.27123366630378    6.70824252890815
C        -1.36455902251835   17.12147885498284   10.58940686088197
H        -1.40379131617287   16.64329318699877   11.56351679569302
H        -1.95154381716286   18.03176788299280   10.64454129602662
H        -0.33598241088569   17.41182237096432   10.40244193947395

