32
CSD_code = FITTNS | q = 1 | S = 0 | Stoichiometry = C13H15FeO3(1+) | MND = 8
Fe        3.41941853270139    0.87595805612752   -1.07180345546891
O         5.39191295271829   -1.01015502668416   -2.18509505096085
O         3.16421067502729    2.18256558206202   -3.65824183825872
O         1.21524425274180   -0.77143392757371   -2.01004031488208
C         4.70945077438158   -0.29261791259742   -1.63777133247834
C         3.25143114810765    1.69953769516829   -2.63715373853250
C         2.05624891622873   -0.11551093934937   -1.62769932201735
C         1.35983687038235    3.23013682769727    0.44417674838380
C         2.57287793554708    2.36502433738750    0.47029837909850
C         2.55530672457195    1.07109127482835    1.07741227292742
C         3.73094126936063    0.36251070169750    1.26273623952159
C         5.05579460373605    1.08359475647600    1.35364578716606
C         5.00182429690418    2.11404055787198    0.25136758880248
C         3.84799916949063    2.85492393435249    0.04677997390864
C         6.25639233618555    0.11581498132902    1.28645792950401
C         6.35352332261844   -0.68832143306376    2.58270680057974
C         7.57537351706564    0.85038471732015    1.05122583251004
H         1.38603233578492    3.93259715092364   -0.38475969001667
H         1.31949603525288    3.81059488654217    1.36847552269615
H         0.44878123416445    2.64054978640765    0.38501097526459
H         1.59882568966463    0.62976452597237    1.33657707842155
H         3.67622702160652   -0.63403905872424    1.68058324856382
H         5.12581030605228    1.60641481118549    2.32289775864587
H         5.93953202804466    2.51387865070581   -0.10866341420658
H         3.89094582531178    3.80057345474368   -0.48347660456961
H         6.08519303618161   -0.57592151940693    0.45220526860445
H         5.42993191764914   -1.21224978647135    2.81317456041210
H         6.59408302392586   -0.03386368418455    3.41725231427853
H         7.14237534153157   -1.43037802920656    2.49936497725638
H         7.65891421689320    1.22736019099827    0.03523799200848
H         8.40389047251290    0.16601943030624    1.21067745975127
H         7.68697421765395    1.67785500715848    1.74804005308633

