42
CSD_code = FITTAE | q = 0 | S = 0 | Stoichiometry = C17H17Cl2N3ORuS | MND = 6
Ru        2.36120601655104    6.51756774830298   10.61236086112675
S         2.32002783446917    4.51091981180947   11.86649189297553
Cl        3.28110268505581    5.26710539547781    8.84445383736460
Cl        1.43344351953159    7.58579516822887   12.49177115208007
O         1.09354275946550    3.73713405844304   11.71900401564595
N         4.19303815897026    7.16237207936183   11.12711976414353
N         2.39339073662163    8.10981647328883    9.61433077704001
N         0.51954636700334    6.39770102033557    9.76112956752987
C         5.09476292193757    6.60960209588877   11.93365310108959
H         4.81111441067889    5.67190428100723   12.38775901463162
C         6.33006780563525    7.16380785064395   12.20244377481540
H         7.01342205407264    6.66054546763508   12.86743738454207
C         6.66877789924723    8.37088773608446   11.60307330502244
H         7.62484233760039    8.83433204837631   11.78865464511853
C         5.74683896104439    8.96049704891529   10.76255933433761
H         5.97010273665891    9.89658479833215   10.27749879203295
C         4.51684032522034    8.34417481786852   10.53634567173343
C         3.48731804765212    8.89276267214999    9.66659624993807
C         3.54024765992287   10.07683889682061    8.93657665848003
H         4.41286528861051   10.70744121233595    8.97545201113052
C         2.45175644108750   10.43432841254645    8.15629256861007
H         2.47378123627898   11.34738956037771    7.58268723949704
C         1.33351055337483    9.61425020597632    8.11510131662646
H         0.48339555724014    9.88409672621777    7.51093852894027
C         1.32778963213933    8.44176969080239    8.86369968752527
C         0.25657545843513    7.45714627178304    8.95557728769694
C        -0.95617182971433    7.57442568132478    8.27906949413716
H        -1.13563792551566    8.42825840955502    7.64613991768585
C        -1.91888300690472    6.59518872252597    8.42658511301797
H        -2.86389899374069    6.67087147854380    7.91090265653889
C        -1.63755706440402    5.51717426205730    9.25285084105718
H        -2.35342877161496    4.72559500962748    9.40313904887857
C        -0.41244924904762    5.46168978814234    9.89481567626303
H        -0.16561692400504    4.63087292672391   10.54443060180446
C         3.63743733884844    3.28787433169862   11.53723183034974
H         4.57664270136420    3.58823998763424   11.98423945484802
H         3.73941540173933    3.23137363907592   10.45703379242793
H         3.29553790035143    2.33991030132740   11.93617164739363
C         2.52307259528489    4.64839401476691   13.67657161663085
H         3.53828847764299    4.91828600695696   13.93860684773662
H         1.83861646880299    5.42696323598541   14.00103863705623
H         2.24262547640701    3.69281065504303   14.10426438449919

