154
CSD_code = FITXOY | q = 0 | S = 0 | Stoichiometry = C60H88MoO5 | MND = 5
C         5.31294938378848   14.45553355461623   12.99067336440994
C         4.33422993465687   15.22088913612725   12.32940777404235
C         3.39386078379068   14.54436519228831   11.56130580951356
H         2.63143280213063   15.11886331972774   11.06936624610533
C         3.40004287992601   13.16747431192233   11.39202031788205
C         4.43875298339908   12.44696042349774   11.97280356340971
H         4.50812221947080   11.38356101120036   11.81065106322193
C         5.39173067444533   13.06759194906515   12.75168179587054
C         4.37054715626083   16.74300019263522   12.40462674015123
C         5.75495089223186   17.21956349080035   11.93479232679964
H         5.99552236614525   16.78928435616707   10.96353702393610
H         6.52845281235200   16.93539966033136   12.65073680629133
H         5.76333792403501   18.30390329816859   11.84774771081675
C         4.13229755894430   17.21025480646713   13.84504686239825
H         4.10070544076670   18.29719729963987   13.87996255719524
H         4.94160571425277   16.87632952799021   14.49415679073078
H         3.18642453910336   16.82146013851376   14.21661287160506
C         3.31365293860713   17.39978579299923   11.50850883717881
H         3.44814786991391   17.11536868192987   10.46743698808491
H         3.41243616661973   18.48116028390715   11.57605967282687
H         2.30693866490652   17.13799695316722   11.82625803747227
C         2.36041428914396   12.43057436882004   10.56028519812388
C         1.27299471005829   13.35733607880548   10.01020798795100
H         1.69340097738243   14.09708315675861    9.33333419542163
H         0.74982688008508   13.86594341106789   10.81635589097675
H         0.54463943557761   12.77056308616119    9.45375798310460
C         1.67982231489012   11.36754980802024   11.43430721512422
H         0.92613430467476   10.83401629127020   10.85871473940074
H         1.19490178949524   11.83866182970850   12.28650407989457
H         2.39663761313700   10.64272945562204   11.80945946352722
C         3.05992887784347   11.75625615996421    9.37104729535487
H         3.58168131023215   12.49993917852006    8.77224862179373
H         2.32954719181490   11.25403000976271    8.74003091177089
H         3.78345660020806   11.01764365642575    9.70494982144499
C         6.63857091248062   12.37603961304903   13.25859116196878
H         6.83504176550187   12.74806961329089   14.27606371494151
C         6.55151006027415   10.85480808631437   13.35880611864882
H         5.71486344412990   10.57159940382704   13.99501465078453
H         7.46954026785283   10.46637332860203   13.79593531515892
H         6.42333181306217   10.38584863696527   12.38760290315162
C         8.68287291193523   13.82421116487136   12.71736548020792
C         7.75012442866891   12.84475884981380   12.32984462990922
C         7.76919428834414   12.35954688142530   11.03366062509403
H         7.00692265134794   11.65365975315038   10.74509914829140
C         8.71021214399043   12.77151165586303   10.10346032935749
C         9.65473793050582   13.69781694110655   10.52078952762363
H        10.40101790224624   14.02390697991778    9.82094541209810
C         9.67080410144239   14.23656082607608   11.80001710910608
C         8.65650498645062   12.21324206224949    8.68930941433849
C         7.30097822540546   12.57593381865587    8.06591696666280
H         7.17970031063991   13.65665866297186    8.03798485450042
H         6.47705013590250   12.15916041495803    8.63811048333725
H         7.23975084349317   12.19361497606570    7.04893881333000
C         8.81194645343608   10.68699287685644    8.74343132103649
H         8.79435014196796   10.27105628341536    7.73812594892275
H         8.01054484025594   10.22794194019255    9.31518364507111
H         9.75832554977171   10.42279125387354    9.21044767902696
C         9.76094479414333   12.77198943488490    7.78825312294114
H         9.66970390754244   12.34067077346640    6.79323892939891
H        10.74584581520675   12.51994199460608    8.17412594899229
H         9.67933465267301   13.85212519361009    7.69409480022167
C        10.71068100951018   15.27703097270155   12.20415837508228
C        11.77251804777757   15.51215963220433   11.12161008191613
H        12.30267717074044   14.59302692015916   10.88253290560819
H        12.49943051860995   16.23295471227008   11.49053274143626
H        11.33403679664119   15.92082518026182   10.21456464677480
C        11.44930461726670   14.80516923330786   13.46531848319984
H        10.76996060316601   14.69531141025399   14.30839737361983
H        12.21846969078798   15.52522648813051   13.73649549282310
H        11.92686721484780   13.84452148623944   13.27789479571337
C         9.99913957644674   16.61590692857176   12.45118173564640
H         9.52561325992469   16.95731752386632   11.53198403705250
H        10.71758599202957   17.36792183954100   12.77093429957163
H         9.22729266227324   16.53069709328467   13.22050320963281
C         9.56703440720823   14.58754112346223   17.23670192653975
C        10.54320183852817   15.39690530027860   17.85285213390788
C        11.44959422712824   14.77589765501322   18.69838572884522
H        12.21065723165610   15.37583751377720   19.16568244861639
C        11.42243474460501   13.41545063851071   18.98717327446383
C        10.39750672013633   12.65827876183314   18.43894044952054
H        10.30683120684750   11.61301245956170   18.67735719074220
C         9.47180471415207   13.22602211498191   17.58428116070855
C        10.53488863067972   16.90628976889901   17.64219354791577
C         9.15263737239021   17.44672482616404   18.04368644555289
H         9.16445483630792   18.53450715518750   18.03719099627049
H         8.88772538247932   17.10643950594773   19.04385321838954
H         8.38544441789897   17.11642548269874   17.34080578763045
C        10.80538216978308   17.23643577564334   16.16988507143090
H        10.86047441888744   18.31484657451597   16.03711518909114
H         9.99921424073236   16.86057229903426   15.54021002634479
H        11.74836404841557   16.79652683579179   15.85142958498060
C        11.59011541417620   17.62243962585687   18.49366065971470
H        12.59618968566223   17.31203788789056   18.22031382646789
H        11.43137683843871   17.43893153051076   19.55389809882810
H        11.51610179852226   18.69462139324335   18.32451754668601
C        12.47081533893953   12.83001510979158   19.92178556397982
C        13.86668747253614   13.08254528831923   19.33538971590972
H        14.06368437766290   14.14485457252690   19.22466838725367
H        13.95140310385249   12.61679842281960   18.35593560544637
H        14.62967732085512   12.66070934026161   19.98645726129485
C        12.35250518052632   13.50688765669141   21.29485063596148
H        11.35162043167186   13.36688302242789   21.69790799688891
H        12.54458105612792   14.57377281444041   21.22750361399734
H        13.06941669397538   13.07470180628545   21.98997255660738
C        12.30693452859817   11.32029070065683   20.12010040091814
H        13.09780047885808   10.95199947652688   20.77060464182214
H        12.37767367431785   10.79166875829408   19.17242313084579
H        11.35414093573544   11.08766449796557   20.58999536323853
C         8.23516234611875   12.49937645455213   17.10100468483265
H         8.05473962917269   12.80824755503405   16.05962811605759
C         8.32872972244919   10.97513378755468   17.09320244845218
H         8.44019144511455   10.56386847322852   18.09205461936792
H         9.17825945396117   10.65863613387226   16.49075111974880
H         7.42046073404214   10.55792245017465   16.66221042988532
C         6.18672026229365   13.97981594230402   17.52060113711706
C         7.10707603983858   13.02005854959846   17.98045437381640
C         7.05974607361861   12.60761914884373   19.30073341895410
H         7.81170335743849   11.91481189280625   19.64285872133671
C         6.10339310080620   13.07524581407231   20.18804605139429
C         5.17275905939390   13.98170788359459   19.70177208483356
H         4.41566023137437   14.35050447340233   20.36798254983265
C         5.18391188318732   14.44747182817834   18.39413991804189
C         6.12805837997774   12.59756346483623   21.63224011820502
C         7.47084989730535   12.99708126578511   22.26087370263651
H         7.51292131437333   12.67189152400367   23.29851594606548
H         7.59133422627572   14.07783600461953   22.23085722866708
H         8.30563927022672   12.55055247228309   21.72783305172774
C         5.00562064286963   13.20516905413306   22.47765838882954
H         5.07459576787059   12.82842824060965   23.49634442199356
H         4.02895587498053   12.93299291578319   22.08460050239659
H         5.08697678929007   14.28876915180592   22.51491648254049
C         5.97371057358763   11.07048110002899   21.66203826320538
H         6.78700301447675   10.57993426459034   21.13492304719507
H         5.03755447124760   10.77902553783555   21.19069041494863
H         5.96950247363976   10.71277080739666   22.68967758550821
C         4.15789344856886   15.46803310433925   17.91161264712265
C         3.07850560945532   15.77062097754135   18.95948154784308
H         2.36271018140574   16.47279852998765   18.53684099511512
H         3.50340516363058   16.22842039124984   19.84936612516553
H         2.53850672498772   14.86947318599940   19.24121015129165
C         3.43917327043969   14.92736303772576   16.66661157258132
H         4.13145002845139   14.77224341860233   15.84131132509944
H         2.67437773601862   15.63093686435895   16.34454472201471
H         2.95845647842103   13.97805874953251   16.89846942527529
C         4.88212545615993   16.78655442329707   17.60020883589350
H         5.66551825598917   16.65284568418451   16.84966216894365
H         5.34312599648140   17.17733393106584   18.50601962669998
H         4.17399182283291   17.52315319526008   17.22620891556902
O         6.20091978482380   14.99414061989839   13.82359936303417
O         8.62518077803366   14.33552761482350   13.96046438777105
O         8.69870706354974   15.06728624906211   16.34861439371112
O         6.26893684822559   14.41842564470831   16.25177666047114
O         7.45536220427505   16.85930416948490   15.02675902582468
Mo        7.45031173620265   15.20615760946786   15.08043730009728

