58
CSD_code = FITYEO | q = 1 | S = 0 | Stoichiometry = C25H25N2O4PRe(1+) | MND = 6
P        11.52753339879790    4.58292279954053    9.20648812424068
Re       11.46643416510042    6.93368383461872    8.56824900281911
N         9.40897605838495    6.47666120531435    9.49636660430902
N         7.68654936207119    5.00626101674840   10.09918612347701
O        10.72243866039385    9.90101832357930    8.01192341969925
O        14.38270680448454    7.20550528825306    7.53575227366466
O        10.44408716135869    6.19259995680977    5.72709976548895
O        12.33902811734279    7.51502422632036   11.49792151748962
C        11.01675704062419    8.82209931852728    8.20899059434185
C        13.30584313754762    7.13943922224365    7.89592659324486
C        10.80546505783668    6.45373024969536    6.77115103103274
C        12.04375706764988    7.33893874764669   10.41918435143874
C        12.01122039726509    4.25224270485416   10.92104721046767
C        13.35358287092979    3.96952027700644   11.17061724450638
H        14.04406874338755    3.88841727130890   10.34129822699377
C        13.79210646823237    3.79003031563536   12.46877505476306
H        14.83001812149900    3.56407391289529   12.65810831714571
C        12.90123396952054    3.90674815500690   13.52450556849917
H        13.24448658915122    3.76872301168168   14.53785654166040
C        11.57133882333700    4.20983256209519   13.28181621808469
H        10.88072247124479    4.31074596312171   14.10545587555468
C        11.12400484064701    4.39031685956057   11.98520638785649
H        10.08697500246305    4.64233638008972   11.80676350990929
C        12.36392284299141    3.29314067880209    8.25759873722284
C        12.34644357283435    1.97263679410409    8.70422632474323
H        11.84995205946031    1.72236049221485    9.63220262463978
C        12.97670943881567    0.99356232278741    7.96086568875193
H        12.96558233333138   -0.03009407404755    8.30247543538620
C        13.62715239905839    1.32508943799820    6.78079054619444
H        14.12114668493529    0.55643938268216    6.20712174585893
C        13.65034104875674    2.63820486977428    6.33957021760583
H        14.16180537643482    2.89482061588930    5.42488664066408
C        13.01854766599425    3.62482338163548    7.07592892099024
H        13.03240567751248    4.65652495081515    6.74393811827769
C         8.60783572897234    7.62102441576424    9.91727906179689
H         8.04327195775670    7.99603476183992    9.05411703651123
H         9.27964089518194    8.41745983433429   10.24869896554079
C         7.66102276007265    7.24129330455313   11.04631554639375
H         7.02571748513331    8.08469655662847   11.30974886177393
H         8.24122708570258    6.95763931178057   11.92739246339654
C         6.81796710921516    6.06706906353751   10.58441962028190
H         6.22688323681666    5.67390478202951   11.41553975954568
H         6.12762088000063    6.37705382061068    9.79091970926365
C         7.07986500746324    3.68956559339025    9.97956585262364
H         6.11273029151967    3.74673002116331   10.48040070539405
H         7.67587016227285    2.94091212713300   10.51154398224593
C         6.86105670944352    3.25676635258006    8.52658119443957
H         6.07132060278489    2.50483767521668    8.51319273252589
H         6.50847812190838    4.11442806546598    7.94969327485678
C         8.10209955665535    2.66223382295051    7.86447639301589
H         7.83862812840709    2.33465547327653    6.85784522749041
H         8.42285199504171    1.77890952293716    8.42200669479560
C         9.26379003339416    3.64767742345924    7.76853963141328
H         8.95812393045732    4.51614934476732    7.18107680031474
H        10.09162683639196    3.16414959515342    7.24279930829143
C         9.73166322825985    4.10023513395403    9.16103103565193
H         9.62565768810036    3.25912111392868    9.85832890286123
C         8.90740713966947    5.28007242834235    9.61899268255694

