69
CSD_code = FIVBES | q = 0 | S = 0 | Stoichiometry = C20H38FeN4O4P2 | MND = 5
Fe       10.51826963308003    2.74547273609704   15.01451213509284
P        11.77718199502123    4.44453625336957   14.27273348983233
P        11.95917170005405    4.72769442586523   11.71381382505862
N        11.18567018741385    5.52497354271140   13.07985411967297
N        12.96903579918567    4.21431752758093   13.06551143125878
N        12.44107827756745    5.35484021044937   15.49799453664234
H        12.17105292404012    4.98408449282378   16.39979872657746
N        12.86727791782607    5.95017332700379   11.04661437486061
H        13.34853213886900    6.57657429730723   11.68039348554309
C        10.26149524219526    2.49794064474081   13.29675801556171
O        10.23023706728710    2.39489952333699   12.15326767811841
C         8.81770140875792    3.14217233200362   15.41179212896431
O         7.72228940173174    3.34060505724086   15.69405497382517
C        11.02061668332706    2.92954991127578   16.68345743224420
O        11.37698088964780    3.03652217427778   17.77408041257893
C        11.08301834348552    1.06370949657627   15.09711403896156
O        11.40526794576940   -0.03858772124919   15.15520063629051
C         9.89461335509293    6.19128662001409   13.01752424342658
C         9.52219747102903    6.65881671496324   14.42301005898608
H        10.22186942273894    7.41730899895834   14.76526680266034
H         9.55529097331308    5.81479954704590   15.11322127397185
H         8.51973384396539    7.08021229179742   14.42898947247001
C         8.79563021403519    5.28526643101907   12.45741440527318
H         7.88633173857835    5.85721218698581   12.28599440383726
H         8.57048099373328    4.47902531358783   13.15203696775967
H         9.12103291851636    4.85238547061699   11.51210052608871
C        10.04337683621398    7.39985684496179   12.08686756835501
H        10.86544602880474    8.03496541392918   12.40875368377317
H         9.12830799825588    7.98722465051181   12.08171804307141
H        10.24519190819054    7.05390612802218   11.07585168427564
C        14.02958228896333    3.21985584878167   12.97315336437091
C        14.24425808461634    2.54659547524001   14.32744890913532
H        13.43691225837906    1.85015375598096   14.53979485550671
H        14.27056824827645    3.29312428515325   15.11863437633519
H        15.18389418103031    1.99825463645640   14.32924132126286
C        15.31771850613015    3.94923562029719   12.56290541555382
H        16.12260519451387    3.23547580767623   12.40452761144107
H        15.62288824555775    4.64676793935923   13.33965653528941
H        15.15316549996924    4.50239443982461   11.64301703833450
C        13.69308725083650    2.16985842443902   11.91351061418211
H        12.77349007670622    1.65028412970699   12.17400513961222
H        14.49421719651798    1.43879000264903   11.83118517364367
H        13.55558599178507    2.65362104494989   10.94657431570533
C        13.35918534016786    6.48519326391742   15.66683070290483
C        14.67543050373586    5.97708988402252   16.26844299006765
H        15.33810858377553    6.81213158698883   16.48245753230408
H        15.17827028237834    5.30718869289218   15.57563646838010
H        14.48924654200151    5.43861828165576   17.19575955899326
C        12.71535313689943    7.47308361414455   16.64648328106376
H        11.76601166460578    7.83311838729587   16.25893047494331
H        13.37043874656024    8.32605249094373   16.80552288786388
H        12.53361343975876    6.99560970516714   17.60739860101524
C        13.63046823575817    7.17017421959556   14.33537660227428
H        12.69894583824065    7.51732305220537   13.89906901383859
H        14.10090668855895    6.46578191076822   13.65718207459887
H        14.29367736551182    8.01976739331656   14.48558564876309
C        13.07642144360662    6.23324193130568    9.63633715570549
C        14.52880970510973    5.91920637106243    9.25151875275378
H        14.73217876005607    4.85894151065756    9.38382605760554
H        15.21907444761539    6.48890631608495    9.87072911023901
H        14.70823953204696    6.17630904432039    8.21086255842472
C        12.13029407333243    5.37059708964041    8.80903997900552
H        12.24847702281346    5.58658168030349    7.75037388998741
H        11.09860694505052    5.56303784723371    9.09628702623289
H        12.33932430585059    4.31654667223253    8.97896525207598
C        12.80056944789099    7.71896981183226    9.37712557817631
H        13.45887995717541    8.33859332922887    9.98283386376122
H        11.77156024773938    7.96491128037978    9.62459970515641
H        12.97105346274098    7.95726837847882    8.33056998846443

