29
CSD_code = FIVHOH | q = 0 | S = 0 | Stoichiometry = C15H10CrO3 | MND = 9
Cr        6.97457751916826    3.28943859930051    2.07314506207685
O         9.14279793953415    4.09648123304227    0.19587744700596
O         8.09846238325639    0.52984182275708    2.09255773811639
O         6.01553998890575    2.80840372640740   -0.70622824344605
C         8.34903240567127    3.83965405871460    0.99169968294515
C         7.66716982557605    1.59474450878951    2.07590848196651
C         6.29124052347925    2.99424258765902    0.39786373696330
C         7.97168294266218    3.38237413399247    4.16334958672478
C         7.74794320447957    4.64013159100691    3.64268930612441
C         6.50174382587949    5.33446661581568    3.44407121123412
C         5.27793834172889    4.82894053538769    3.09121034401563
C         4.90295462305912    3.46459559078970    2.82253341201596
C         5.36136931325716    2.30383442627634    3.41079305965131
C         5.86150257569804    2.20637329553673    4.79614655164940
C         5.08420304822890    1.55765066958211    5.75018135029381
C         5.53048719080155    1.43731401360599    7.05413920570215
C         6.76810608677885    1.94638441315049    7.41011351339316
C         7.55466495535258    2.57419362434107    6.46090583485655
C         7.10214714808130    2.71738464204136    5.15318651649427
H         9.01974660018020    3.11486078471632    4.27950473194511
H         8.62596092515253    5.25283041573581    3.43607766983495
H         6.58372779124551    6.41878997881712    3.44929437024427
H         4.51228149687685    5.56297967151771    2.85173836967568
H         4.07096624935330    3.37014836706601    2.12413321310572
H         4.86196608564549    1.39520934863859    3.08113851279256
H         4.12945816116302    1.13960636838354    5.46335829409979
H         4.91996163706835    0.93204646696297    7.78768545948991
H         7.12841254954752    1.83910735625141    8.42219194676962
H         8.53115466216842    2.95137115371359    6.72983363425888

