29
CSD_code = FIVHIB | q = 0 | S = 0 | Stoichiometry = C15H10CrO3 | MND = 9
Cr        1.35648513593079    1.02543837814560    3.28663545880474
O         3.56303519160058   -0.97237883350756    3.28148253922201
O         2.50198975429317    1.48525303780218    0.57785164824456
O         3.68167498343332    2.75583677849816    3.95596373361813
C         2.67633883774862   -0.23226066512554    3.29759313030653
C         2.01228278075955    1.30662863629044    1.60853630502257
C         2.75906360760438    2.10178770372386    3.72086470690508
C        -0.09805175255457    3.82653118540460    4.50839522254218
C        -0.75694225652855    4.48512353677090    5.45769375264637
C        -1.62777070438243    3.91316396592564    6.47966788306139
C        -1.27760911046009    2.98728447488309    7.36947836994371
C         0.04015981229340    2.37129916880811    7.48554307795084
C         0.69916990417615    1.70874347826395    6.53866443026488
C         0.19512064435892    1.39044476515999    5.19121925929214
C         0.08538014247060    0.03573947953745    4.84282593543394
C        -0.44179746540542   -0.35703411951262    3.59688464683247
C        -0.80580126525082    0.61335440540528    2.66805544425225
C        -0.65506053572439    1.97734120473017    2.98536423263655
C        -0.17685607032883    2.37902574482577    4.24183887830286
H         0.47364364998919    4.38612918224510    3.77731185480270
H        -0.70084561784428    5.56754127127641    5.47420064156706
H        -2.60793753898450    4.37081869304020    6.54765150023249
H        -1.97869582031812    2.70665147268932    8.14703212053419
H         0.47855756206191    2.43762954963503    8.47466914726342
H         1.65127012404633    1.25108558708058    6.78070004280410
H         0.31757753846307   -0.71980475696826    5.58583938270335
H        -0.60656266879970   -1.40739757005146    3.38876489932777
H        -1.26008404096316    0.32845753421261    1.72636422664302
H        -0.99533482168499    2.73096671081103    2.28360752883899

