48
CSD_code = FIVJOM | q = 0 | S = 0 | Stoichiometry = C22H22ClNORu | MND = 9
Ru       10.97350550851461    3.13239761035360    9.55709120031916
Cl       12.00412810401696    2.59350593063400    7.52167345990571
N        12.72153089826722    3.95226472103157   10.00260990465756
C        10.14874544382012    2.78613663174944   11.62014065184756
C         9.11366345113758    3.20145441325674   10.74906617669623
H         8.48356458454600    4.04208406959409   11.01586088424522
C         8.79663888646527    2.44302428304505    9.59193099014127
H         7.93982185433241    2.71779525584471    8.98663017765338
C         9.55933903357007    1.31626977837882    9.25345588079759
C        10.55272348592297    0.85583019381279   10.16900878828551
H        11.06425149124650   -0.07686451082062    9.96401972625302
C        10.81948847839403    1.56304110962716   11.33227483455318
H        11.52362034257813    1.16816626150110   12.05767770162229
C        10.41406720443043    3.50369653153212   12.92476843428887
H        11.36529275056290    3.13579585286710   13.32928839080295
C         9.30530672969702    3.17035946327268   13.92847104551500
H         8.34343912518388    3.52567755844829   13.56621825223090
H         9.51062882760719    3.64560996308837   14.88451623665873
H         9.23856366586260    2.09543069428851   14.08376622193792
C        10.53673182769137    5.01609854296811   12.73067002553571
H        11.24993143897349    5.24069279873310   11.93752459601563
H        10.87972663524067    5.48336429196792   13.65058921870498
H         9.58019769350854    5.45674028815068   12.46339561369178
C         9.28621113414718    0.53543904154689    8.00462169546536
H         9.28209611439936   -0.53420735571816    8.20939621198136
H        10.07723820799158    0.73852293626746    7.27781460155451
H         8.33500625714756    0.82208085292664    7.56204739893923
C        10.75029789739200    4.99011323917802    8.82774043559326
C         9.62452978891009    5.47867210068917    8.18794859721607
H         8.76637814879297    4.84947541443529    7.99309628215905
C         9.55577347484533    6.80362494858098    7.75445023092016
C        10.65145532585696    7.65626839269476    7.93404845150620
H        10.59362423078118    8.67827498115148    7.58833196407805
C        11.79309078087698    7.18908783323445    8.54154720777438
H        12.64354943984816    7.84271036124262    8.66759429929478
C        11.84556763182094    5.86612980960076    8.99060881927750
C        12.98090262936458    5.23365674447563    9.62981677584087
C        14.23416404774998    5.80445340321323    9.84746872570550
H        14.41388235470365    6.82107754147616    9.53793452283438
C        15.23463542940804    5.06166253947172   10.43960552957205
H        16.21006144378214    5.48802868037136   10.61381465959150
C        14.96360629806289    3.74270318386886   10.78966634950535
H        15.72076010828328    3.11717940351507   11.23392779207230
C        13.70523818438253    3.23405179469484   10.54714899810457
H        13.47643805430853    2.20098411539664   10.78158066517995
C         8.33328843263771    7.29124256850972    7.11606141162265
H         8.41100105072491    8.33204087897455    6.73901879665890
O         7.30819607218402    6.66675485685553    6.99006116525168

