71
CSD_code = FIVKAZ | q = 0 | S = 0 | Stoichiometry = C32H30N4O4Pd | MND = 4
C        13.24755571309005    3.88441145726040    7.69835466682274
C        12.97638453278086    2.70317234804697    8.58789472396271
O        13.79349645110962    2.72095970910733    9.74650864823581
C        13.34722602257736    3.54070064834667   10.76840224978348
C        13.96898301699106    4.76025490441095   11.00243740920711
C        13.50715538047324    5.59436721136186   12.00555036150603
C        12.42724249592473    5.22550608008088   12.79603173798141
C        11.85026263882233    3.97280960861480   12.59735733002531
C        12.29996776539359    3.13755812896085   11.59148125763698
C        11.82912008281735    6.16535356543154   13.80957634349392
N        10.41018869712314    6.36737802493990   13.55309435109688
C         9.56517070473407    5.82002063858200   14.43879547444101
O         9.86609326645313    5.19852808828144   15.45446257478259
C         8.11814077921892    6.05163904509969   14.06784138091787
C         7.02957360177695    5.64781528672749   14.83122894438432
C         5.75250037972554    5.92584374277587   14.36429211276078
C         5.58906732695552    6.59461779000607   13.15918931892014
C         6.72294132112980    6.96880292012644   12.44846911614715
N         7.93363281096957    6.68578225368240   12.91552097696369
C         6.70932484286983    7.69787442272726   11.12430512659740
O         5.65145301022263    7.96877920146455   10.56224922844000
N         7.94490948733551    7.99021250082909   10.69303617419502
C         8.03296304519424    8.66438775864260    9.40551237506250
C         8.60109756814605    7.74381367192696    8.35759472654385
C         9.73791099408487    8.07489437856714    7.63291400845577
C        10.30963004426566    7.16805018324306    6.75768332531302
C         9.75357656168732    5.90520434596443    6.60051470269693
C         8.58222447946082    5.58401713801373    7.27984844589692
C         8.01208309343684    6.49892648466317    8.14560622684066
O        10.34388562973338    4.99035005372378    5.74611555273678
C        11.07363295469182    3.95497897833783    6.38314497866358
C        12.45212830266685    4.40776219245938    6.77681071082938
C        10.89062478545078    5.73054887125360    9.82455826101777
C        11.55339970706439    7.05448549261704   10.00447815184834
C        12.66451216826210    7.45750949773337    9.27532398809957
C        13.20926454821500    8.70704659308915    9.51472723706025
C        12.63249853395259    9.52466649990958   10.47595882447999
C        11.52399048249991    9.06563163897721   11.17119259844262
N        11.01346722427666    7.85561527090906   10.92454489892260
C        10.82201863896621    9.86267721932149   12.22922495476366
Pd        9.43824225103999    7.24456177439386   11.93573733413491
H        11.92664532441165    5.73795315025848   14.81739432699230
H        12.35395131037713    7.12843986795811   13.77912084214619
H        13.98744288242594    6.54955756331188   12.16604898855069
H        14.80858703143392    5.05205894136825   10.39031266086468
H        13.25177822719537    1.78227718806307    8.06035381194544
H        11.91291444546859    2.63906298552917    8.85712428142134
H        14.23386932032452    4.30429462184493    7.84564326565555
H        12.80376310645142    5.24522880083752    6.18875639004233
H        10.52055586839980    3.55637463911394    7.24500627103593
H        11.15458004021532    3.16065548296929    5.63168941354492
H         8.12733854927514    4.61637533294051    7.12653534761841
H         7.10416076368140    6.24975294917263    8.67599322049251
H         8.66219193217497    9.55871059938391    9.49577391043067
H         7.01655747652211    8.97079783353809    9.12106056561356
H        10.19067446962806    9.04825297681941    7.76099064580763
H        11.19383603536738    7.43020483806807    6.19711278789784
H        11.84288205531087    2.17145215673684   11.43505641086220
H        11.03522361547408    3.66225696770687   13.23531849766236
H         7.20744325059530    5.13271865512154   15.76197904583863
H         4.88864010309068    5.62402655144140   14.93762496111769
H         4.61788860432637    6.83464067529465   12.75612701672429
H        11.39504999379150    5.14995612721638    9.05964139897259
H        10.90520645967811    5.17930084174249   10.77203382560920
H         9.84228165723330    5.87881195407450    9.54024251049527
H        13.08592034053851    6.79596685004494    8.53657312228819
H        14.07258543990073    9.04423781056554    8.96171672006396
H        13.03623312527266   10.50310765057292   10.68321708234800
H        11.29084065544383   10.83265139465956   12.37463064491310
H        10.83808846923339    9.30827987309551   13.17911664323137
H         9.77032810511692   10.00967909990786   11.94233457966916

