68
CSD_code = FIVLOM | q = 0 | S = 0 | Stoichiometry = C27H35Cl2N2PRu | MND = 9
Ru        4.99777089326070    2.06341437169892    7.85594525446644
Cl        4.57470526577715    3.21160506670090    9.87967932640472
Cl        7.22568401713287    1.75927528241865    8.57075003885889
P         5.95163744145122    4.03467546884291    7.21355370333056
N         7.03372901122000    4.75961777044564    8.26863094628141
N         6.89856389086582    6.15605180153780    8.40998913735688
C         6.10789262077581    6.53055013302400    9.56728822117360
C         5.83537722318390    8.02898681035806    9.51937371107817
C         7.15407314493771    8.79571256129296    9.50053914517730
C         8.00406249498397    8.30765455097774    8.33186651917474
C         8.20087325832012    6.79784376457504    8.42555213447323
C         4.83953597511442    5.39263260519925    6.74065013397576
C         5.31172130339079    6.46882213123649    5.99798767761741
C         4.46724591289658    7.52584471836224    5.71362874925323
C         3.15731287199483    7.51432606100631    6.16885707338035
C         2.68943757581603    6.44521971239867    6.91460271589209
C         3.53169863575568    5.38545436073372    7.20276848652467
C         6.94302799236304    3.79137211808046    5.70641518078745
C         8.28125989579670    3.43477089049541    5.82535235719525
C         9.02673518422990    3.15859506728973    4.69320790281209
C         8.44145282965280    3.23336842063616    3.43946380857151
C         7.10690370412689    3.58781569235228    3.31683193517439
C         6.35728251462418    3.86101028566028    4.44642563213230
C         2.89851201142632    1.07105746081957    7.90332431385191
C         3.04884341732405    1.74877401631643    6.67842797315436
C         4.17402218652658    1.49687789783464    5.85289684066009
C         5.13916668263441    0.52944837133367    6.20406675453884
C         4.96603705335124   -0.15985057211524    7.43121431786639
C         3.87082849892058    0.09818546495325    8.26360268985295
C         1.65074466776361    1.21028110632466    8.74427643134821
C         0.54414972967232    0.36994469276126    8.09443377758315
C         1.19959744399675    2.65731429142502    8.93416292561121
C         6.28902839517733    0.19071213867608    5.30319012836985
H         7.15916885135995    4.24106951583755    9.14577893790915
H         6.63034337704799    6.26981311916347   10.50387711805855
H         5.17281727019630    5.96478887877113    9.53322781958806
H         5.23476320670577    8.31766819185248   10.38266741451128
H         5.26881604181057    8.25185282481046    8.61357589594333
H         7.68909907777402    8.62360318106639   10.43744993793332
H         6.96843183206079    9.86744791521819    9.41059939512017
H         8.97589187978921    8.80387762077264    8.32912415823330
H         7.49413088159196    8.53706003560366    7.39497937513534
H         8.76225137359055    6.54824621043079    9.34188720500122
H         8.76423831306785    6.42866311008128    7.56537477371555
H         6.33560111372356    6.47080072023074    5.65449208965462
H         4.83039198048363    8.36618945138566    5.13939513333774
H         2.50280127589578    8.34446511319015    5.94584672936188
H         1.67208898272744    6.44179637135743    7.27791283045349
H         3.19515534662120    4.55197741659954    7.80549580554612
H         8.71617842168272    3.36946565966254    6.81187697815917
H        10.06627859143081    2.88066966824583    4.78697348102955
H         9.02361131290730    3.01582562083658    2.55582958765600
H         6.65155960193495    3.64984426388297    2.33833099536149
H         5.31706886982133    4.14748339516983    4.35724106334833
H         2.27915759914459    2.42653218791977    6.33003368657324
H         4.24177846221344    1.98439971362265    4.88548201122623
H         5.67989319065163   -0.93052288105681    7.70522036051842
H         3.73286173309594   -0.48058164305865    9.17049050324518
H         1.86404101003874    0.79626479106011    9.73624683123157
H        -0.35200814850811    0.39859491257609    8.70918655655473
H         0.85704647669106   -0.66727093715425    7.98788560705679
H         0.29886777138146    0.75885156894379    7.10780792995066
H         0.34547984538791    2.68652980929287    9.60651438838407
H         2.00520398001784    3.23783541628684    9.37978619166693
H         0.90330057042109    3.11183172617836    7.99107389775568
H         6.19468762215424   -0.83329330149549    4.93914551071119
H         7.22772149218022    0.27063284999233    5.85219910844379
H         6.33166704839434    0.86682298910439    4.45183474758414

