65
CSD_code = FIVLAA | q = 0 | S = 0 | Stoichiometry = C30H28N2NiO4 | MND = 4
Ni        3.61063196688705    6.49751263136337    4.75067952810515
O         4.53007582532825    5.80564647902180    6.22792897549525
O         5.66160219381690    5.67180512263546    8.80885018974413
N         4.92480070539536    5.67468206735529    3.60969621028128
C         2.54476743414383    4.13722734727432    3.62248467288434
H         3.13436622914909    4.15616941655071    4.54092840513812
C         1.24206555954581    3.66727601904165    3.67087359651107
H         0.81874699575223    3.36354052057277    4.61738675173049
C         0.48441736642956    3.58678314185911    2.51581892184437
H        -0.53490648209699    3.23326665072490    2.55921041391539
C         1.04084261851146    3.96169779109865    1.30535197312295
H         0.45868114418386    3.89817608205421    0.39848606533285
C         2.33641034557490    4.44262783898635    1.25464890495497
H         2.75262574154263    4.75846448926525    0.30955508949781
C         3.09593252786212    4.55168292854307    2.41218036316664
C         4.48648769239066    5.14540621349024    2.33459914369788
H         5.19410281057585    4.38186077809962    1.97628477573823
H         4.46455962712269    5.95817558479286    1.59865219325651
C         6.15934973469079    5.54475105621972    3.94394295060684
H         6.86384496822769    5.14533819367616    3.20766657048080
C         6.70114311829145    5.76943563624144    5.24355805526361
C         8.08963645858847    5.84530265249939    5.43122635427775
H         8.73058429135830    5.86181317253713    4.56123010834913
C         8.62004917663469    5.92504579587269    6.69068837528466
H         9.68449050136060    6.01855376177458    6.83820588374656
C         7.77280881348240    5.83863191288556    7.79595752556259
H         8.17571463667196    5.85568441373356    8.79726229639345
C         6.40876301442824    5.73170437816429    7.65409705687344
C         5.80907747984539    5.78565122519886    6.35634279257824
C         4.62870018436868    4.70850773287378    8.85259832889230
H         3.91109538106982    4.84565745659692    8.04097130887878
H         4.13641428879635    4.84442079622553    9.81480130917191
H         5.04057934454505    3.69423559026641    8.79673907884765
O         2.69110514834174    7.18956687766210    3.27352189511434
O         1.55950350570188    7.32615200935787    0.69284026377723
N         2.29667743863345    7.32084116050411    5.89164578062271
C         4.67804946437152    8.85614889229222    5.87782343985781
H         4.08914436743942    8.83551969259107    4.95891107951539
C         5.98098978050286    9.32539941712385    5.82935409456890
H         6.40508704573821    9.62694435735551    4.88249106601762
C         6.73782595432382    9.40805232900241    6.98478547656403
H         7.75729119490461    9.76114988717860    6.94138905187435
C         6.18035139056899    9.03593351625410    8.19564530932872
H         6.76184607514350    9.10124590743687    9.10281228973303
C         4.88461697796465    8.55545558917049    8.24639708990936
H         4.46763789036274    8.24165072084790    9.19183749430349
C         4.12588669820406    8.44423593930881    7.08854140428218
C         2.73521675548680    7.85077247388835    7.16639919031870
H         2.02777208936743    8.61466536624872    7.52430779717617
H         2.75701107673676    7.03846176627346    7.90286636430660
C         1.06201523775297    7.45037767336794    5.55764845305838
H         0.35755247597546    7.84971606549330    6.29400163660414
C         0.52011490383287    7.22569696491897    4.25808134307301
C        -0.86837549150678    7.14977573768183    4.07043187346115
H        -1.50928287592017    7.13270582881284    4.94044560518142
C        -1.39882906254647    7.07070907553832    2.81094269082284
H        -2.46326001810961    6.97710257982268    2.66341563323890
C        -0.55167052858323    7.15807904826114    1.70568174720736
H        -0.95464190233253    7.14179012595655    0.70439012790391
C         0.81236702326984    7.26505590126008    1.84755234713290
C         1.41211082910400    7.20999070914650    3.14523210361009
C         2.59227184060497    8.28963835371436    0.65004563400066
H         3.30993642293431    8.15173801464664    1.46149768244016
H         3.08455220977180    8.15479318183728   -0.31231148613261
H         2.18026438748855    9.30379995953775    0.70697135150326

