60
CSD_code = FIVLUS | q = 1 | S = 0 | Stoichiometry = C24H31ClN2PRu(1+) | MND = 9
Ru        9.06448717592160    6.83661204618350    4.78707909109785
Cl        7.64804783968679    8.40964300251653    3.79504959448224
P         7.05299442492286    5.75646965639927    4.91812101378015
N         7.25071621884324    5.34204384223140    3.29633966552137
N         8.61683822912994    5.62817242072847    2.98218843776162
C         8.68554889922708    6.28525362469360    1.67483502523479
C         9.40947681815728    4.39963948254819    2.96455632794985
C         5.41846551817274    6.51745887212634    5.05565451853567
C         4.33562181873168    5.94611193998239    4.39560731237893
C         3.08332715335771    6.51708625193159    4.52695953445374
C         2.91086671255511    7.64075321531120    5.32081894434870
C         3.98924025804251    8.19959710692367    5.98838678642153
C         5.24652287811063    7.63881935734983    5.85861879179570
C         6.84461413710448    4.24249492618639    5.90808588525588
C         6.98970669597354    2.95553079844451    5.40517154175186
C         6.82114185881206    1.86620346759617    6.24298030198566
C         6.51869674576669    2.05575169761903    7.58117052977824
C         6.37544165378964    3.33921457803061    8.08781143980982
C         6.53831135613251    4.42923075787879    7.25491181178737
C        10.71509241095812    8.46949955950763    5.23675553947644
C         9.85607133131446    8.26166209418962    6.35384370678357
C         9.70813019100919    6.98769302633560    6.93213322444702
C        10.38789818704880    5.85634138077633    6.40058316302677
C        11.14990707170179    6.04883274347784    5.23345699151588
C        11.31967191725477    7.33997825725460    4.66507209904618
C        11.07749711822611    9.84734020004676    4.74408718454564
C        12.34792115220581   10.27871245015049    5.49240426114079
C         9.97202008515374   10.88554344989190    4.92360649210154
C        10.36329532151789    4.54182018206553    7.11881395475505
H         6.84254471023642    4.54425795559999    2.81077621125242
H         9.70919875353418    6.59783066503757    1.47487725827592
H         8.03886272393069    7.16303481744640    1.68979190245958
H         8.35253076504583    5.60412211192348    0.88669402335253
H        10.44190119765301    4.62606650223009    2.70294552197677
H         9.37399554408946    3.92737018999630    3.94931082116089
H         9.01386996321589    3.70142856759027    2.21750776607031
H         4.47966013727736    5.06838989902636    3.78119784048847
H         2.24004466903184    6.08750301804088    4.00804830861793
H         1.93168070709092    8.08402387527020    5.41646414578144
H         3.85052544485310    9.07572307407692    6.60302168614972
H         6.10533484439736    8.07501868504318    6.35257058980611
H         7.21904839961186    2.79393135193605    4.36106934736363
H         6.92408544558048    0.86678015600519    5.84859305110146
H         6.38948944776543    1.20323834739244    8.22941593657146
H         6.13471473972870    3.48595198594942    9.12951885460584
H         6.41998200402536    5.43748308272509    7.63056960200116
H         9.38886724498141    9.11592668229617    6.83010496942103
H         9.14293880997441    6.87806634869855    7.85317204547835
H        11.72538133183840    5.21816868759782    4.83680394251049
H        12.00796554130370    7.46698201369014    3.83589177600833
H        11.31209886918906    9.77575520364463    3.67609000743671
H        12.65907222313887   11.25923717444718    5.14366791298223
H        12.15763731392888   10.33849714757119    6.56211923570731
H        13.16252784593582    9.57733372356288    5.32400810924589
H        10.24473997094174   11.79487075918308    4.39547097994641
H         9.83218630705220   11.14023044091074    5.97152722422326
H         9.03279106996620   10.52210783481663    4.51382259086519
H        11.05514265109346    4.58208541737560    7.96136611266632
H         9.37148540997797    4.32342682191847    7.51170693659518
H        10.67322473479022    3.72674707062802    6.46847211889985

