113
CSD_code = FIVNEE | q = 0 | S = 0 | Stoichiometry = C48H54Cl2O6P2Pd | MND = 4
Pd       12.45479818855932   14.78592558954137    5.41133313203620
Cl       11.09875129574657   15.05562865478173    7.25690687149899
P        12.00277385214249   12.55453903878675    5.15413031677488
O         9.04481892435288   11.16330039933684    0.14972648924925
C        10.93567097687279   13.03348083896234    2.68093845975202
H        11.36212789064842   14.01477891829060    2.85339255668895
O        17.27950838029919    9.75584745257091    4.97342551953874
C        11.12060728816860   12.04409457393520    3.64098888674385
C        10.59074061321317   10.76413689589208    3.40726959269337
C        15.09004201858542   10.13278981383916    3.96017185461444
H        15.26966928531231    9.46971601229475    3.12892864132650
C        11.04324051822764   11.75937935581149    6.48570640777648
C         8.97329138067184   12.97524762652264    5.68793348741992
H         8.65404260204031   12.42509506886264    4.80166234191835
H         9.63767469904600   13.78328795718405    5.37163187180935
H         8.09753752863929   13.41337665733243    6.16042405011278
C        13.87474593841495   10.78783761690377    4.04430854515933
H        13.14721180163483   10.63002626735691    3.26247554404663
C         9.68383707692991   12.06951216089214    6.64225425676963
C        16.05619504387835   10.35032538844668    4.93455285835156
C        10.25743205490260   12.79841977405516    1.50016792106426
H        10.15142505888747   13.59736425796955    0.78400660772861
C        11.64807850001061   10.89577238720663    7.39068956019033
H        12.69191213553629   10.63841659946771    7.27210282051553
C        15.78854720416067   11.25550700324775    5.96172466992928
H        16.56706555199078   11.44012510031673    6.68654703180249
C         9.73280301298013   11.53401799667570    1.26279008124831
C        10.71617126790597    9.63105508591994    4.37995843129723
H         9.90510111025249    9.67043115630855    5.10753650695170
H        11.65638903231959    9.67274062641667    4.92253463370045
H        10.65282295366826    8.67960439437875    3.85580627496096
C        13.58501553826328   11.65324525962296    5.09111335332915
C         9.90983153586668   10.53892649900429    2.22427501901544
H         9.49477677889299    9.56399925659230    2.01674236151289
O         8.79311221788766   10.14276058088353    9.57962968330732
C        10.94328018930404   10.33058789433011    8.43732008630510
H        11.45410222810313    9.66468605880283    9.11488565299418
C         8.98609098025322   11.49993979019597    7.69007201685486
H         7.94017777020899   11.72433560216229    7.83390560672473
C        14.58071454345437   11.92079259846094    6.04559537455711
C         9.59662429928471   10.63460898079202    8.59686579956768
C         8.84983737850772   12.11736409046047   -0.86610613237553
H         8.26418514620963   12.97046478693679   -0.50872796647619
H         8.29561228930293   11.60405120447426   -1.65029920122271
H         9.80263180135452   12.47397200470409   -1.27011057491167
C        17.63155058414607    8.87763277934430    3.93246460390000
H        16.96357609252479    8.01076839773897    3.89371660905474
H        18.64258351117731    8.54215049831598    4.15844627268987
H        17.62679757476368    9.38367958822070    2.96187180191773
C         9.35900746402669    9.29390039723940   10.54733432272462
H         9.74656402288153    8.37302631839860   10.09868341128633
H         8.54951556140142    9.04603785752897   11.23225288964055
H        10.16048741226313    9.79369519131891   11.10082778419498
C        14.38182588505112   12.96741584299312    7.09821130296015
H        15.10928019200645   12.85757105982131    7.90031380792093
H        13.37305037644772   12.93217660510958    7.52325375925916
H        14.53992273988906   13.95592096071166    6.62842827193200
Cl       13.80657814947799   14.51845358558866    3.56196681126186
P        12.90215613619601   17.01900985796178    5.66522062879511
O        15.86033131646967   18.41041236844623   10.66950968639416
C        13.96934106811453   16.54018881138008    8.13843530275290
H        13.54288183544883   15.55888347380207    7.96606644602851
O         7.62533173960159   19.81754382727371    5.84616563887207
C        13.78431098739847   17.52954521428043    7.17837059606984
C        14.31414206203017   18.80952969553087    7.41206817969182
C         9.81484556306877   19.44059090525299    6.85932872047675
H         9.63520892869566   20.10355936755823    7.69065499495291
C        13.86181574225355   17.81419279743494    4.33371659344756
C        15.93175395901570   16.59839230254846    5.13170204001009
H        16.25092402829374   17.14856060439013    6.01799060505964
H        15.26736174396546   15.79036068496889    5.44797492998549
H        16.80754444362189   16.16024760892658    4.65929349419038
C        11.03015696087460   18.78559163327139    6.77507875594569
H        11.75769506189053   18.94335048659937    7.55692083559185
C        15.22125521027096   17.50407909789618    4.17730116316809
C         8.84867871557338   19.22313626746277    5.88494798620290
C        14.64765873512013   16.77527480524960    9.31915562661110
H        14.75376332789876   15.97632053160215   10.03529155741536
C        13.25710199847717   18.67783087183829    3.42866596018003
H        12.21328621207197   18.93527898614998    3.54720424043190
C         9.11635371537209   18.31812901683427    4.85764179432940
H         8.33782729545965   18.13356083240591    4.13282004727488
C        15.17225262283923   18.03969080488130    9.55650426083367
C        14.18858870906215   19.94262846637076    6.43941458975557
H        14.99963828174468   19.90332437110509    5.71181022376107
H        13.24835123669118   19.90089181874349    5.89687526167357
H        14.25189084288670   20.89407194002209    6.96358631695171
C        11.31987872123290   17.92025746560968    5.72819754450652
C        14.99510403232227   19.03477405028998    8.59503026386146
H        15.41011883665931   20.00972252026337    8.80254220670656
O        16.11228851979633   19.43065652772455    1.23991013692635
C        13.96202073157037   19.24299394180620    2.38208988785055
H        13.45128552308933   19.90889066752049    1.70445209344368
C        15.91910571170836   18.07359664353250    3.12951993979807
H        16.96502206652707   17.84915667753129    2.98576147922075
C        10.32416957797829   17.65284649159208    4.77367145843356
C        15.30867742112698   18.93891902861751    2.22265118037080
C        16.05553055296140   17.45629538661572   11.68525469012855
H        16.64119857421110   16.60326336245371   11.32773894534208
H        16.60982546144573   17.96959207694551   12.46940876213543
H        15.10282195741402   17.09958369790836   12.08936831129940
C         7.27320932937241   20.69554713574144    6.88727273405189
H         7.94107575186209   21.56248953862521    6.92613636201332
H         6.26212734727823   21.03093143428308    6.66136353614721
H         7.27805284560863   20.18934478454533    7.85778348661137
C        15.54651669007322   20.27944933840100    0.27207425585803
H        15.15895342990783   21.20037607188039    0.72060851026077
H        16.35607940226233   20.52722550932278   -0.41279272804823
H        14.74507105994972   19.77963425527554   -0.28144974548698
C        10.52285793704726   16.60648777490573    3.72075897186652
H         9.79566251454305   16.71683869900603    2.91851181561916
H        11.53181178034772   16.64135934687604    3.29605300708110
H        10.36382029442342   15.61794576336195    4.19010746535682

