125
CSD_code = FIVNII | q = 0 | S = 0 | Stoichiometry = C54H66Cl2P2Pt | MND = 4
Pt        0.00078781520996    0.00003867485717   -0.00000420999940
Cl        1.66918493641244   -1.22357263783314    1.07243753901830
P        -0.76822280539402    0.87182865262131    2.02769222408274
C        -0.59627376770993    2.69669089207440    1.97183742683259
C        -1.77366424447085    3.43123871074480    1.82399188824923
H        -2.71510963322670    2.91099181405449    1.73249937710478
C        -1.75830502966485    4.81036351833499    1.77355117582983
H        -2.68286309582430    5.35612859064832    1.65590930490541
C        -0.55406344428648    5.48388610325933    1.87655366325017
H        -0.52861630186107    6.56363394866265    1.86742310731600
C         0.62261212386988    4.76393672568831    1.94590869680358
H         1.56170364802575    5.29630926413283    1.96834665414798
C         0.63108226516368    3.37270931839047    1.95904876047646
C         1.94440407825728    2.64890196174643    1.79835575247401
H         1.78614230753525    1.57553577422212    1.96839471839098
C         3.05406800718476    3.13684096472871    2.73038293161509
H         3.39827862866998    4.12809622174809    2.44372025372873
H         3.90082917814728    2.45693100311942    2.67210795170462
H         2.72333024975166    3.17559249509013    3.76509803258664
C         2.36477734182167    2.84090289540099    0.33881456851884
H         1.60896758328002    2.39927363322140   -0.31069512999183
H         3.32448358792625    2.36840420894210    0.15114096420298
H         2.44655828882997    3.89920533293560    0.09788731938833
C         0.02287580517240    0.26488997469733    3.57200317109863
C         0.73879532649177    1.14862065518899    4.37558617711527
H         0.79095058303071    2.19193929604273    4.10423713508141
C         1.36419581306636    0.72559241900803    5.53086803423632
H         1.91477204766486    1.43066879474344    6.13644118584280
C         1.27699882339983   -0.60311455634738    5.90539329369786
H         1.76403311623297   -0.95033028155842    6.80472640307094
C         0.55131006430255   -1.48332884862138    5.12686106955460
H         0.47353796601989   -2.51446746856294    5.43629414009430
C        -0.08323605013731   -1.07786965499585    3.95763783168633
C        -0.90434035534378   -2.07371316785523    3.18076915111703
H        -1.14735162507899   -1.61161682750050    2.21480358283908
C        -0.15484147993243   -3.37786738737825    2.90509034866788
H         0.80292460625571   -3.17324831246107    2.43642437400636
H        -0.74037229690658   -4.00178060954581    2.23307699321629
H         0.01681196815938   -3.93736975509239    3.82115421858056
C        -2.21077273490809   -2.37683440767191    3.91883358205469
H        -2.00212892184276   -2.85428374133533    4.87419261831311
H        -2.82462851135799   -3.04926913963017    3.32367836467087
H        -2.77925772392980   -1.46977536731619    4.10522095202753
C        -2.54934631141703    0.66319306880640    2.43770426989185
C        -3.30038931830310   -0.03034430914386    1.49286275395412
H        -2.82277364859339   -0.31839736941804    0.56898337439332
C        -4.63508124722535   -0.32031542573077    1.69538112040581
H        -5.19773110765394   -0.84981103521241    0.94087819468931
C        -5.24089756716733    0.07506280550925    2.87332505881714
H        -6.27975826395887   -0.15410911618359    3.06039830170707
C        -4.51021418606074    0.78100932248610    3.81057981856201
H        -4.99806153768962    1.09554874676012    4.72110202911356
C        -3.17055518829148    1.10216898109721    3.61730404857454
C        -2.46939698243658    1.91836975596014    4.67532379518750
H        -1.47499913974961    2.17814610362765    4.30897904082487
C        -2.31420483327720    1.11375346497518    5.96812985114625
H        -3.28660626129971    0.85287932805160    6.37963537094994
H        -1.77361585174220    1.69947839895550    6.70832705344787
H        -1.75868941887617    0.19702051402289    5.78722303385159
C        -3.20776439141931    3.23056804731480    4.95405461551685
H        -3.34955088144470    3.79288282421666    4.03466918194456
H        -2.62362780796222    3.83968498932692    5.64059803190873
H        -4.18063432202237    3.05221147598732    5.40457616905200
Cl       -1.67057451835256    1.22125615940666   -1.06974034210209
P         0.76832353324891   -0.87177445498088   -2.02798326856655
C         0.59638822772021   -2.69662741098397   -1.97154786070968
C         1.77381067182527   -3.43115585380998   -1.82386935322120
H         2.71527460375154   -2.91089688169230   -1.73255230438082
C         1.75852325669795   -4.81028728437901   -1.77343419982352
H         2.68309536199998   -5.35603881071759   -1.65577271000137
C         0.55430593177935   -5.48388565859515   -1.87626138224835
H         0.52889625337677   -6.56363915690245   -1.86692480024527
C        -0.62239285817472   -4.76397796742248   -1.94559895864750
H        -1.56146828028185   -5.29640265052927   -1.96792102851703
C        -0.63092562099019   -3.37274913331334   -1.95876437626941
C        -1.94431122662319   -2.64903110432825   -1.79825622573783
H        -1.78609054364769   -1.57567185224056   -1.96838190424805
C        -3.05391216172422   -3.13713317239270   -2.73027871596491
H        -3.39811164684304   -4.12836040553454   -2.44349784396431
H        -3.90069959023662   -2.45724324202915   -2.67213275001463
H        -2.72313211512480   -3.17601647398190   -3.76497760134868
C        -2.36469128894347   -2.84095426321242   -0.33871618494917
H        -1.60885881577117   -2.39929483104009    0.31074697902995
H        -3.32437214850513   -2.36840796338707   -0.15108896329941
H        -2.44651712996133   -3.89924597934649   -0.09773248952538
C        -0.02293191989177   -0.26492081657630   -3.57220303493660
C        -0.73883157534939   -1.14878062934572   -4.37566718200722
H        -0.79085646997510   -2.19207554644380   -4.10425202972204
C        -1.36434097780152   -0.72582250561729   -5.53089916261893
H        -1.91486342364805   -1.43097641156291   -6.13641345632257
C        -1.27726018574420    0.60289428699222   -5.90540896646148
H        -1.76435837886421    0.95004414769244   -6.80472299543010
C        -0.55164103948342    1.48321522599721   -5.12693035358773
H        -0.47400138656369    2.51434995329201   -5.43636623308613
C         0.08301163707153    1.07787230904948   -3.95773708362421
C         0.90408164580895    2.07378547151794   -3.18089426849595
H         1.14713644683897    1.61175412673126   -2.21489736325883
C         0.15469161771795    3.37804101035396   -2.90537266286005
H        -0.80313168956654    3.17365408432907   -2.43676450711908
H         0.74018089181740    4.00200219813894   -2.23335849474047
H        -0.01694625309521    3.93746590084087   -3.82150403123985
C         2.21048270393385    2.37688884913462   -3.91902244944878
H         2.00172230516698    2.85423709053226   -4.87440338553381
H         2.82433234636844    3.04942606459052   -3.32397464373725
H         2.77900455792890    1.46984857395550   -4.10535097939417
C         2.54943677430749   -0.66304769526736   -2.43785428417358
C         3.30043309731675    0.03069917167987   -1.49315082902189
H         2.82282711012495    0.31911891516451   -0.56940027492669
C         4.63514338594719    0.32064676787261   -1.69557513472299
H         5.19772772934846    0.85013657157229   -0.94104825023356
C         5.24095192601924   -0.07478061188847   -2.87350214290135
H         6.27977408680955    0.15448907972634   -3.06056957369768
C         4.51027116267487   -0.78077239578512   -3.81071376057612
H         4.99808907374390   -1.09525231527552   -4.72125780506237
C         3.17065916710711   -1.10206694594646   -3.61740523795276
C         2.46950768077366   -1.91829702375165   -4.67540704687591
H         1.47512185844930   -2.17813748764448   -4.30906283363342
C         2.31421417613084   -1.11371834626876   -5.96823325669213
H         3.28657778856820   -0.85273066108767   -6.37975235411809
H         1.77368809506424   -1.69951932843753   -6.70842284435861
H         1.75858580040270   -0.19705456613261   -5.78733230802773
C         3.20797221971536   -3.23043751756028   -4.95413319250142
H         3.34979537889092   -3.79274402204061   -4.03474835611020
H         2.62387831616960   -3.83958647232468   -5.64067918368434
H         4.18083455313460   -3.05202036080938   -5.40465247389862

