77
CSD_code = FIVSEJ | q = 0 | S = 0 | Stoichiometry = C32H30MoN2O10S2 | MND = 8
Mo       12.21615363824543    8.30511232563629    1.33080619373022
S        11.19771124713357   11.27299739547260    2.62234925375092
S        15.36162551486369    5.90465345212312    5.26464637485361
O        11.79426446881580    7.70453102500341   -1.65364765573039
O         9.22658041102593    7.69693951525710    1.65776662234140
O        15.97271533161129    8.59178450056776   -0.31491752050796
O        16.09978336618036    8.95070372650867    1.91460257535196
O        11.88628578303525   12.36382327700703    3.27528033786276
O        10.59853021070229   10.27517885775155    3.47452810707740
O        11.68743814536592    8.63574603270068    5.68469305823912
O        13.33070313674018    9.81955381893717    4.69561768879630
O        15.25604460268370    4.65132237475896    5.95444479207811
O        16.42199779537671    6.07969664954923    4.30188133236408
N        14.22316774068448    9.52839149956103    0.81860581650709
N        12.51515456132169    8.01808444733087    3.62123409157546
C        12.00111382755900    7.88686309564696   -0.54145766890840
C        10.33682939733532    7.95498758424773    1.56509332963427
C        12.34862948411307   10.41067304725985    1.57855931552694
C        12.18422005367651   10.17956082346735    0.17556863181251
C        13.62442704327985   10.19832162180398   -0.35412093266465
C        14.13858898030867   11.61408525446132   -0.22836214994819
C        14.27446022587455   11.85008451696242    1.07122766648351
C        13.85594821492394   10.58405401055200    1.77995743486770
C        15.50403813835149    8.99885371476869    0.71268186257978
C        17.34383861025242    8.25341797790756    2.00384531732722
C         9.96332847683703   11.92553707483627    1.50798413926853
C         8.78550561065213   11.23220946936592    1.30429142007737
C         7.87194261545998   11.71555987796080    0.38599335821569
C         8.13029780432947   12.88219075632250   -0.32993568215180
C         9.32321886514792   13.56194054238390   -0.10523047380747
C        10.24423371980770   13.08462852264999    0.81046596152825
C         7.12560927572673   13.39427682208127   -1.31390252151562
C        13.83266696997523    6.28904707085189    4.44616371095105
C        12.57193370011280    5.92342089904758    4.65531596848346
C        11.73735968982984    6.76593264814937    3.70915952621275
C        12.02257011220918    6.30631644606053    2.28162406048158
C        13.38972752367992    6.66103276390064    2.06297630409195
C        13.80476127199500    7.34478872722064    3.36518881749301
C        12.42597291599146    8.83798624723170    4.76513621807120
C        13.25826515904959   10.83882500158229    5.69103163131793
C        15.39845456809104    7.26106624419900    6.42861820765007
C        14.49796985183688    7.25049027430670    7.47747377214635
C        14.45894352663700    8.32628867005985    8.34294053257276
C        15.31326164244111    9.41304594674208    8.16456597654864
C        16.20862085714506    9.40011619499219    7.10082824991357
C        16.24931087082245    8.32767418172518    6.22548069814259
C        15.25230004739750   10.57206213027941    9.10974790757129
H        11.39674626110753   10.63933845297157   -0.41926672157926
H        13.81266683922754    9.68454006670606   -1.29693129718509
H        14.28534636327172   12.27416727057691   -1.06081408339703
H        14.55123197480191   12.75117756694444    1.58230567164413
H        14.22876169583858   10.44910094343814    2.79315455463391
H        17.22163431327884    7.42606569583822    2.70644843307395
H        18.09694370260053    8.95329048369439    2.36523610704880
H        17.62457627706954    7.87713025725768    1.01977136040433
H         8.60083136926549   10.33605891447167    1.87419469590423
H         6.94737115536210   11.18367798827368    0.21903730767163
H         9.53232653120630   14.46971947449475   -0.65177311941484
H        11.17240068952802   13.60021634671008    1.00272483241239
H         7.53269489891949   14.21328149646398   -1.90045247644275
H         6.24007295294831   13.75207459062311   -0.78973459300748
H         6.81233687590748   12.59881525022212   -1.98708761992358
H        12.19123575980532    5.15739696223714    5.30140449493992
H        10.69713958000917    6.92143000357382    3.99322756887860
H        11.58532184498214    5.37827140894706    1.92099059682249
H        14.09657154197254    6.01149942731245    1.55279872411962
H        14.67474962345441    7.99981722159964    3.33666452655417
H        14.28160964307633   11.09265347468947    5.96078101119630
H        12.71001905994273   10.46678501822130    6.55638650811379
H        12.74414583650281   11.69916944420603    5.25821043889435
H        13.84820965210700    6.39921378550004    7.60397918006705
H        13.75844134645833    8.33089957684038    9.16437992869412
H        16.87917141669405   10.23489017028918    6.95536399191316
H        16.93705212644315    8.29849971385030    5.39464942419433
H        15.46228106226999   10.23992556862002   10.12524394831429
H        14.25582408551426   11.01129682504954    9.10525075547884
H        15.97308051584314   11.33903954317601    8.83955419173253

