86
CSD_code = FIVVOV | q = 1 | S = 0 | Stoichiometry = C45H36FIrNP2(1+) | MND = 3
Ir        9.18628057895405    4.20875772616033    1.63097303305916
P         7.12000032868035    4.83591588377237    0.84367535667182
P        11.41116632369373    4.06350198397589    2.25020701618418
F         9.07110187078240    1.45933648167313    1.68811641160009
N         8.63058459937703    3.55688148988650    3.41232602244181
C         8.28084076828648    4.48222953509546    4.30845969854357
C         8.43781025841743    4.31810288975217    5.68167582402166
C         8.95392358284367    3.14601730007647    6.17501848255812
C         9.26172437170371    2.10548282025232    5.27414105060145
C         9.75324118685898    0.85439266889873    5.69751496192874
C        10.01833234641353   -0.14215730769764    4.79724219321288
C         9.78652823719848    0.06005341665506    3.43250164963305
C         9.31719436703997    1.27430811015627    3.00886066755267
C         9.06130485924153    2.34417456758876    3.88737646847509
C         5.76204706349200    5.02115198158572    2.04379449685464
C         5.42201744410204    3.87717060158962    2.76364567266861
C         4.40738879327032    3.92048293348655    3.69891385092847
C         3.72899332709596    5.10885304662408    3.92623223717549
C         4.06807080006513    6.24864937494792    3.21710288974002
C         5.08520780134951    6.21119915170117    2.27771875066825
C         7.22955023235642    6.47831888184166    0.05836715757191
C         6.71772596020430    6.77703041932182   -1.19800083600822
C         6.89914797324294    8.04194531452373   -1.73225013895811
C         7.59354528775226    9.00836186619016   -1.02373710686990
C         8.11438917179698    8.71252826774378    0.22697259192095
C         7.93817824892703    7.45151792167651    0.76164487446878
C         6.33192040783016    3.78973145512357   -0.41855993159154
C         7.11666789993813    2.84785002516178   -1.07451754873906
C         6.56310021531765    2.04161614998853   -2.05228282694711
C         5.22220371339272    2.17175158304444   -2.37488235781988
C         4.43385775268898    3.10336444978721   -1.71666961194441
C         4.98262115123245    3.91188459700662   -0.73861800022789
C        11.75444847200592    5.50225404207343    1.17507583049137
C        12.74161215819184    6.46472717504216    1.32651349531594
C        12.79832461057395    7.52712675453699    0.43872851090708
C        11.87550334672882    7.63622049611830   -0.58936270656095
C        10.88549505525045    6.67705427505348   -0.75091190236083
C        10.82936546176726    5.61502955605038    0.13078064563130
C        12.72858620893011    2.90212408592949    1.76654682447414
C        12.40296066414302    1.80901097918389    0.97187000957554
C        13.39330285749169    0.93567959510105    0.55823921461620
C        14.70845829279900    1.15498158132425    0.93213867622691
C        15.03616545786302    2.24961172266330    1.71800677655362
C        14.05216162386709    3.12508494210635    2.13564969893580
C        11.85494035456315    4.54844051509730    3.93984890517033
C        12.29408219329760    3.58029974250528    4.83986255674528
C        12.47452196786841    3.90473598058712    6.17141656080325
C        12.20476412901728    5.18874443124287    6.61679301692184
C        11.74500154000982    6.14905586759227    5.72951855352709
C        11.55705991128845    5.82900954353012    4.39822889946286
H         7.85519745209726    5.39828280238914    3.92265336167184
H         8.15508183485051    5.12278084643545    6.34034683403808
H         9.10830438649395    2.99859880245388    7.23151075480851
H         9.91030867423021    0.69742906879928    6.75322221322991
H        10.39562840914649   -1.09542337150559    5.13118142053346
H         9.96432860546289   -0.72386786576988    2.71447550961504
H         5.95928774086740    2.95668893339142    2.57179095749416
H         4.14200166728214    3.03122447327768    4.25034149976510
H         2.93406883235557    5.14429229981337    4.65510341102105
H         3.53651295416566    7.17182070102303    3.39203493418174
H         5.34479813438035    7.10265634544275    1.72433089705566
H         6.18076111631731    6.02508463399851   -1.75807583448902
H         6.49780103608217    8.27183238354026   -2.70768224919788
H         7.73213003767905    9.99152928621459   -1.44653742006482
H         8.66006533941904    9.46327077647050    0.77864932203121
H         8.34771573967350    7.20684368248751    1.73432493297641
H         8.15963941679205    2.74349750312883   -0.79991393506785
H         7.17358610873688    1.31005498911497   -2.55953301505773
H         4.78741233388202    1.54284908383352   -3.13653404589863
H         3.38777678257584    3.19788472046908   -1.96601799195487
H         4.36868737627974    4.63492422770512   -0.21908388746132
H        13.45249214030590    6.38954478222669    2.13643771311240
H        13.56602067896902    8.27728112929827    0.55261890286006
H        11.92601899629022    8.47044545756220   -1.27150080340635
H        10.16862611753834    6.76424359592242   -1.55371449060018
H        10.08537019763543    4.79899431030992   -0.03730514202355
H        11.37525482391186    1.64511918082819    0.68057301174094
H        13.13932311048156    0.08496197280682   -0.05579461239644
H        15.48121945406791    0.47366466886126    0.61099682234339
H        16.06267222217347    2.42069760636364    2.00480445092595
H        14.30517994430665    3.97493905264776    2.75405896614986
H        12.49926891713501    2.57701434313982    4.48988781037022
H        12.82590239276371    3.15409393843740    6.86295457128350
H        12.35008147844573    5.44089360945120    7.65584666645941
H        11.52966874577416    7.14788984459883    6.07789729416034
H        11.18688557502016    6.57286531005865    3.70554460238889

