34
CSD_code = FIVXIR | q = 0 | S = 0 | Stoichiometry = C18H14IV | MND = 11
I         3.38958973446855    2.38013616194144    0.81472736859534
V         2.48923761731883    3.31399887217872   -1.51240054643980
C         3.63907288296608    2.63499286240351   -3.23207592264160
C         2.32220824952705    2.84317809238791   -3.68041819617227
C         1.47862042600728    1.86055123443354   -3.07871948229915
C         0.11861926971724    1.55684050976443   -3.22808646755688
C        -0.41248232410517    0.53039447842129   -2.48370763217100
C         0.38081359171916   -0.21564359504495   -1.59780219278785
C         1.72367451711928    0.03990373013137   -1.45157282051472
C         2.29061001454443    1.08417574427970   -2.19524139867780
C         3.62082631318353    1.61106152548431   -2.26692954242680
C         2.73053694181578    5.48197592297372   -1.62933434586521
C         1.70544540748702    5.17023952184024   -2.53598722896252
C         0.57363680805145    4.70499206200403   -1.80128310524948
C        -0.72425772970175    4.34597160724633   -2.18484323878530
C        -1.59755073441986    3.90363207706503   -1.21903162142570
C        -1.21232317914094    3.81289149151537    0.12743588515027
C         0.04553742619356    4.18776896374009    0.53869540983089
C         0.95338427973472    4.64885037297317   -0.42454881279458
C         2.31005541302426    5.10684340299785   -0.33745722023210
H         4.52668103736271    3.11695753864237   -3.62556403510611
H         2.04361013382495    3.44120085252521   -4.53533523381415
H        -0.49038269412657    2.09680394785440   -3.94026612969373
H        -1.45750276280140    0.27819122230378   -2.58904970413128
H        -0.07598494522190   -1.01703210502280   -1.03658310277235
H         2.33721340883944   -0.55426933120241   -0.78785955627835
H         4.49791848980925    1.13571610313474   -1.84600054742114
H         3.65037073552190    6.00388082055789   -1.86721415892010
H         1.68426463854018    5.47927579252298   -3.57066392667398
H        -1.03850683564187    4.44691084179617   -3.21536465506240
H        -2.60536009499033    3.62862602633873   -1.49390857352070
H        -1.92950473816217    3.45845910439168    0.85273646745174
H         0.32990269996098    4.14536001466921    1.58202901544940
H         2.80802600157313    5.38676413275005    0.58192525191922

