66
CSD_code = FIVXUE | q = 0 | S = 0 | Stoichiometry = C32H32SiTi | MND = 12
Ti        1.50937952950586    1.72002100694274    9.71889824093278
Si        3.49200483846670    3.89891711789898    8.18857862010745
C         2.61501211505608    2.30643457409111    7.66129017750913
C         3.12979067004160    0.98350485563708    7.82693858305030
C         4.45766924063167    0.49760830488712    7.89475757122631
H         5.28692304543715    1.18980422310575    7.85639414707509
C         4.68495982511826   -0.84433317008829    7.93694855379227
H         5.69722766174192   -1.22260717827880    7.97467545669354
C         3.62341562256706   -1.79411423218337    7.90709889489412
C         3.87862638944149   -3.17394099101961    7.95538363456288
H         4.90299335251334   -3.51090925934804    8.03509469947153
C         2.85356627596724   -4.08452861527285    7.90590914738341
H         3.06409494446387   -5.14335069053136    7.94667253932013
C         1.53080152835255   -3.64662479024667    7.80379140578065
H         0.72998442294031   -4.37105652096152    7.76884866360431
C         1.24909667096053   -2.30442388770545    7.75195173237805
H         0.22459692696028   -1.96655839716179    7.68209963625416
C         2.27900709059860   -1.35133169918409    7.80351421867989
C         2.04482051336825    0.05397358983755    7.75686983917568
C         0.85579980988428    0.80829256902252    7.57693827663842
H        -0.11510758478086    0.40485479022309    7.31788801673130
C         1.20569969489896    2.17545421366558    7.49111081273477
C         0.24043073501905    3.24455388511199    7.06427158569745
H         0.55504336313326    3.66735407251357    6.10850746438013
H         0.16852401415373    4.05579510484299    7.79059857241883
H        -0.75322946423378    2.81493298899646    6.93277229191131
C         2.79527552738144    3.73027947146218    9.94097309919069
C         1.51160455312276    4.19078928048338   10.36845532988736
C         0.69366754344730    5.24886063530621    9.90295982829268
H         1.00637449024776    5.83656153150667    9.05131956014919
C        -0.44702647766839    5.56735518726328   10.57474872304538
H        -1.06856662131342    6.38341188047978   10.23275541793106
C        -0.85269293530075    4.87400389225739   11.75176028491864
C        -2.03337115196126    5.21749722732893   12.42937429020464
H        -2.64947690020724    6.01180685069689   12.03103936372225
C        -2.40754591355143    4.56105892908447   13.57467328041219
H        -3.32000878994468    4.83391247045401   14.08457404270252
C        -1.61029310843816    3.53466440753313   14.08702321988861
H        -1.91465831386008    3.02130317290565   14.98763741597111
C        -0.44909302081434    3.17710545610965   13.44856726550826
H         0.16216651815332    2.37633611707507   13.84067352259062
C        -0.04461868676068    3.83057181201584   12.27348578358966
C         1.14906968121588    3.49910236160055   11.56754765608518
C         2.19864291199375    2.59004402653547   11.86160931106162
H         2.31558671349143    2.03543858540584   12.78415645972431
C         3.20906253593476    2.74869331785837   10.88695724431816
C         4.56449207457189    2.11160935794190   10.99935414787024
H         5.32903700631125    2.88221479644580   11.11146041235259
H         4.81305933885908    1.50663305385286   10.12583342526926
H         4.59991919963437    1.46975595265993   11.88016040271639
C         5.39954836716312    3.91827297981214    8.08429288464029
H         5.76422643509062    4.91114957079682    8.32830619527167
H         5.71937700665703    3.69615385012314    7.07117413863751
H         5.88918427743626    3.21941467316959    8.75038539959578
C         2.99068590236888    5.45629327525529    7.20148409401488
H         3.26786248567486    6.35076694862475    7.75031637471622
H         1.93444871916510    5.51812605456579    6.97245380859718
H         3.52968036496564    5.47495652538607    6.25945366607126
C         1.78377737544040   -0.09514233051668   10.69174044296313
H         1.52674059278420   -0.07601849953894   11.75653282926710
H         2.84413186459908   -0.37412581521638   10.60755536090064
H         1.19453687348619   -0.90087589843148   10.24069836008532
C        -0.53018769107965    1.58321607690132   10.09135087185691
H        -0.75182724569220    1.48631192513242   11.15959090031650
H        -1.02101164716223    0.74114636159558    9.59114677720109
H        -1.00841108763908    2.50802266324895    9.73771562605563

