116
CSD_code = FIWBAP | q = 0 | S = 0 | Stoichiometry = C61H50Cl2OsP2 | MND = 6
Os        6.79734706222289    3.88227073335655    4.17069128438236
P         9.12054415847957    4.17053692227590    3.87375965767748
P         4.57074896487225    4.31696479305638    4.85428980223993
Cl        6.95176234802075    5.88134483817306    2.90901283945922
Cl        6.78116905629911    5.18811858772408    6.29031607075321
C         6.82710298449595    2.17780565095346    4.84795891834906
C         6.85675729461700    0.83390344225822    4.68493390589663
C         6.92509608976856    0.44244833114345    3.33364392806375
C         6.77676866774964    1.38206594273408    2.29953488373851
H         6.74404531395968    0.96230405735357    1.29778001901443
C         6.57252942132772    2.74301119323804    2.42852278049894
C         7.22555496842420   -0.98518597924096    2.97121392801217
H         6.60631775981286   -1.29831457047727    2.12871041640366
H         7.03518785547673   -1.64593942348057    3.81828496331591
C         6.23301068685240    3.43153614201648    1.17863687308690
C         5.10869788841612    4.25369930559492    1.08694951284667
H         4.47049726600290    4.35891639131680    1.95229870537453
C         4.79024808954668    4.90142618252483   -0.08876933373668
H         3.91217371649604    5.53026999175523   -0.13369066242106
C         5.59861462583821    4.75780134801964   -1.20450730405366
H         5.36237971011170    5.28143459100630   -2.11937709660057
C         6.71011193948032    3.93563602935583   -1.13642202840299
H         7.34733239652849    3.81239655260133   -2.00078630495689
C         7.01480001806238    3.26627025806008    0.03306233786917
H         7.88610138546071    2.63150592091494    0.07479305561703
C         8.68452632987821   -1.06862536307910    2.59285189418078
C         9.66055981099358   -0.84011923129946    3.55645489078737
H         9.36682595763575   -0.61384564728816    4.57130781471329
C        11.00142418072973   -0.90054182957678    3.22496692001954
H        11.74758359344749   -0.72247539213632    3.98469871077720
C        11.38486460507421   -1.18860905575196    1.92566500345076
H        12.43222659985245   -1.23763672526999    1.66653832385612
C        10.41883436190526   -1.41360156155224    0.96039741036414
H        10.71054879216917   -1.64299815696141   -0.05477004768810
C         9.07588465947911   -1.34785904712422    1.29153795506627
H         8.32755404491445   -1.52358546217796    0.53154418888317
C         6.77535846803106   -0.09417069472813    5.83008668922508
C         7.68594563756042    0.00664601764185    6.87645287838990
H         8.48128405294329    0.73569684647690    6.81713241554213
C         7.57618430936661   -0.81972807645788    7.97766266699737
H         8.29300470814563   -0.73457935103613    8.78215024828382
C         6.55316919759459   -1.75667717421724    8.06989632639263
C         5.63828988293743   -1.84177473728031    7.02848347074188
H         4.82817532662354   -2.55489057044193    7.08718423992368
C         5.74279339681925   -1.02106535995104    5.92099802201246
H         5.00787976791309   -1.08315086315446    5.13065716404743
C         6.45325027164111   -2.65702914573985    9.26334728280560
H         5.46866228650704   -3.11389606715684    9.32593820316293
H         6.64471037143285   -2.10421877924383   10.18105648216461
H         7.19499490425745   -3.45343410370767    9.19392186923971
C         9.96303839007880    5.75093540421854    4.24532091650242
C         9.33934589338821    6.82884419556459    4.85617097486011
H         8.29384011408828    6.78172226852712    5.11750285339743
C        10.05860697024422    7.98012112741182    5.13071948396252
H         9.56300036612073    8.81600059010178    5.60217182418265
C        11.40006088339455    8.06128619817397    4.80458204857095
H        11.95804251849664    8.96155132736766    5.01761876662854
C        12.02996701752293    6.98169719668131    4.20427361811281
H        13.07885310092016    7.03771618656290    3.95030177207884
C        11.31919660724421    5.83083704916815    3.92888025374799
H        11.81436931516127    4.99101778556560    3.46061277147503
C         9.70645571328577    3.81418304654073    2.19336175017528
C         9.90277188792578    2.49115400215184    1.80501358108613
H         9.68886170020809    1.69118767700745    2.50090967574834
C        10.36205033782785    2.20621078957414    0.53202603269542
H        10.53094064802032    1.17863248650134    0.24442022464899
C        10.59350227203147    3.23392504677479   -0.36982943964119
H        10.95333333461841    3.00859796508842   -1.36317024658531
C        10.34361872445552    4.54610844796709   -0.00363797543823
H        10.49537209492008    5.34500339078943   -0.71448087894520
C         9.90314688882990    4.83918899518795    1.27431960511875
H         9.70556367502560    5.86187491154532    1.56231138960084
C        10.16517748594484    3.11432123387978    4.95116076149275
C        11.34713068375652    2.49099561230004    4.56923186910102
H        11.68607729807171    2.53561256473271    3.54414151811568
C        12.09867434597635    1.79953302882561    5.50364570472222
H        13.01832367648352    1.32030179115196    5.19889287748541
C        11.68797226962999    1.73051439704710    6.82395422602871
H        12.28132661294731    1.19098282800967    7.54774181636819
C        10.51837659825672    2.36262211705715    7.21403486940062
H        10.19844916331304    2.32359323824217    8.24547810764220
C         9.76156640292628    3.04992918355942    6.28295724132513
H         8.84949348034726    3.55087178175749    6.58317884709755
C         4.09152597152989    6.06268490892071    4.98636160578450
C         3.95315268780540    6.68607429976439    6.22279873387023
H         4.10488730631562    6.12113448951937    7.13166079401089
C         3.64840406782209    8.03313947995892    6.28486908781395
H         3.54347112258576    8.51303524296677    7.24722252471984
C         3.49393027994809    8.76896638265631    5.12110371820597
H         3.26463789700366    9.82344362705611    5.17492426557946
C         3.64937591106291    8.15555274372382    3.88915447119873
H         3.54874737204946    8.73008002584855    2.97975803959216
C         3.94895749803896    6.80745295247663    3.81772353011459
H         4.09446929116512    6.33900281282956    2.85490057037118
C         3.19817155891570    3.57877832723012    3.87618414129636
C         3.36677695696539    2.23884773645634    3.53683315468651
H         4.28979371484704    1.74618262637997    3.82051177991335
C         2.38449108148817    1.56475251764379    2.83969900339452
H         2.52365338032024    0.52650709556392    2.57609270887560
C         1.22078662439045    2.22433841116936    2.47439286321372
H         0.45256212311436    1.70218612769214    1.92337286995714
C         1.04464523693640    3.55380091318522    2.81564403595919
H         0.13742317824082    4.06869014558608    2.53405495628587
C         2.02635707106926    4.23225354648042    3.51850358919391
H         1.87977108706789    5.27211320751361    3.77714788379641
C         4.05362845253471    3.55379090152140    6.43388802224926
C         4.86990424192601    2.66902812976721    7.12286007230258
H         5.87370152254190    2.47936859125646    6.75766386582939
C         4.41356163121683    2.04002709209895    8.26690235092672
H         5.05766344120552    1.34746760521922    8.78874225224692
C         3.13668228720790    2.29842987746088    8.73525673489395
H         2.77884697601178    1.81214380677973    9.63085378786149
C         2.31554916893752    3.18209562996345    8.05234709890518
H         1.31819352912762    3.38474767028959    8.41506748771498
C         2.76531462892887    3.80112454443704    6.90165849688369
H         2.11742104424535    4.47932696467999    6.36232648592738

