35
CSD_code = FIWBES | q = 0 | S = 0 | Stoichiometry = C10H16Cl2N4O2Zn | MND = 4
Zn       -0.15163400233887   14.06328733449388   10.15469332097117
Cl       -1.08041313241555   12.22544674298439   10.86354963348305
Cl        1.64169050758813   15.08753660982078   11.08476028077368
N        -1.61267612319965   15.53611427066454   10.38781144434941
N        -2.61949813806404   17.38580236920388   10.99469993896819
N         0.53743372128796   13.77873517304989    8.22275517300542
N         1.03417521272056   14.09016822073697    6.11264886805320
O         0.52050102199576   17.00057866889864    9.13489278750036
H         1.08538255708364   16.40045268157381    9.68316135384692
O        -0.74041969522742   16.52232994923228    6.69075120426527
H        -0.24264764001892   16.82812614289750    7.47378891859944
C        -2.83481352817186   15.21283160116713   10.89998820246933
H        -3.14934764299321   14.19077917105121   10.95908334367476
C        -3.46914433640861   16.35221381104193   11.28113588472377
H        -4.42946697938496   16.51178562323852   11.72513880813115
C        -1.50549915599935   16.84926383622198   10.45612216518782
C        -0.34076562056734   17.67636788167765   10.00121859954616
H        -0.72091066300218   18.55096593457265    9.45705890271004
H         0.20271804090923   18.03449883145201   10.88837493721991
C        -2.86586251970841   18.77923579268287   11.23901086679836
H        -2.88804341960059   19.33587143210541   10.29978623747863
H        -3.82713240796531   18.88802272405887   11.73692453327907
H        -2.08514618157749   19.19847382542224   11.87560292277587
C         1.71187451999600   13.14421410991298    7.96035679958708
H         2.23830397035213   12.60764573945867    8.72334795767407
C         2.03153240334104   13.33098453859117    6.65026204385866
H         2.86986731808094   12.99808904706937    6.07430076120488
C         0.94848470757952   14.56138555553189    4.75772374392068
H         0.29992366808625   13.91186474644099    4.16521917518066
H         0.54196115953864   15.57227531752341    4.75196211870534
H         1.94235077171586   14.56781147996636    4.31457011323305
C         0.14326416965609   14.33271871692988    7.09206509385814
C        -1.07657835020901   15.17531193838875    6.91193028636314
H        -1.70997469706369   15.05598612696683    7.79987113169607
H        -1.63888951608334   14.84742405503171    6.03153244689121

