104
CSD_code = FIWDOG | q = 0 | S = 0 | Stoichiometry = C38H58Cl3O2S2Ta | MND = 7
Ta        8.61619495814607    5.45776632085032   12.14486135900993
S         6.45477181635572    7.29616393003787   13.19488586223797
C         6.97660539010595    9.07192643878995   13.08768043123658
H         7.11633210395617    9.24692172997426   12.01999587589940
C         8.31775990309994    9.15396166440403   13.80881432570511
H         8.25076376755428    8.57619690184998   14.73807879358723
S         9.54121391326522    8.25992290329857   12.74740989497275
C         8.81835192148038   10.55457514193883   14.15163530831992
H         8.07762569585800   11.04109131162463   14.78645804875779
H         9.71981711129114   10.43638999085746   14.75721263699739
C         9.17102384774416   11.45929044703417   12.97298125774701
H         9.95320517371625   10.97832108419974   12.38337102126003
H         9.59093663934624   12.37654374165821   13.39372585821098
C         8.02751771099500   11.84340717200565   12.03015001667020
H         8.39539495250267   12.66714470521323   11.41392206417907
H         7.81377591304004   11.02233502665846   11.34606262885977
C         6.73528831415868   12.28586427360410   12.72955712096278
H         6.95528031449190   12.62216973418690   13.74356744079208
H         6.32794145058719   13.14766622840799   12.19562417939072
C         5.63098703744491   11.22738567426718   12.75943984970282
H         5.44044542662423   10.89740228175976   11.73566334775310
H         4.71889630159187   11.70619571774941   13.12517159445128
C         5.88074229984052    9.99297028255419   13.62915714702143
H         4.94872859622738    9.42536559693073   13.66349958997273
H         6.10380315129417   10.28563957557531   14.65526953310599
C         5.47181834360264    7.15978917494101   11.65229356771589
H         5.32359337477667    6.08396569338139   11.55142637034400
H         4.51368523188350    7.64240129772475   11.84493869573404
C         6.12446236055570    7.74369235001732   10.44215890711780
C         5.47754328183896    8.78406526001888    9.78978426195173
H         4.54118601772144    9.12662162793374   10.20023500688400
C         6.00435435139964    9.35339306277491    8.64442817458599
C         7.19092843880826    8.81582748028545    8.15831245787311
H         7.60121132818473    9.24095982485950    7.26041034578410
C         7.87554503212156    7.76965518816452    8.75910662182107
C         7.34864166921425    7.24270476688199    9.95791239704531
C         5.35502101025730   10.52194540678815    7.92046710384618
C         6.30669459234007   11.72547661487743    7.97921550738699
H         5.87091241133394   12.57303430288293    7.45496817817811
H         7.26323124125064   11.49422219167669    7.51917534964808
H         6.48690161545914   12.01428323669164    9.01279763910959
C         4.02037069220477   10.93344902376553    8.54816024907686
H         4.15254287152743   11.27029857731995    9.57386487411329
H         3.31056828500410   10.10988593542316    8.53015742122125
H         3.59324211526652   11.75754989423233    7.98079782505144
C         5.09281624677021   10.13446411798580    6.45870959994645
H         4.57949826696349   10.94390000648855    5.94441047526450
H         4.46843427059570    9.24505038694178    6.41237586155976
H         6.01753269894708    9.93024980432154    5.92732599504941
C         9.17759225923065    7.25850440839885    8.15449059118309
C        10.33307257236657    7.80061863169341    9.00509681876240
H        10.24785888803334    7.47322301925259   10.03691729492656
H        10.33429220060004    8.88934772289632    8.98842998202821
H        11.28316923081272    7.44392428540898    8.61587925006171
C         9.19999332249625    5.72449547254191    8.11807252601195
H         9.22595073803636    5.28939547535874    9.11244555933937
H        10.08699720163833    5.38342757981667    7.58912352685607
H         8.32129197245801    5.34771589667715    7.59715391657225
C         9.38231023570445    7.74011920683300    6.71104767789480
H        10.26992369663772    7.26164684434378    6.30373043338981
H         9.54294457576050    8.81452656686190    6.66139241134069
H         8.53565260626586    7.47098196148144    6.08321941138939
O         7.96740092239420    6.30294917070916   10.68684161317754
C        10.75621299985202    7.71920044584336   14.00163258797424
H        11.39932698930285    7.04404717883789   13.43384956292424
H        11.32663773457458    8.60236179166222   14.28907655039373
C        10.19497272107679    7.03723043404642   15.20777632104962
C        10.50501060578413    7.56708396411015   16.44847737314695
H        11.07922411758636    8.48122922942144   16.47907903778723
C        10.12294285087516    6.94213501922535   17.62580129024996
C         9.42658785373861    5.74891840449284   17.50970818620813
H         9.14218281554198    5.23580692951068   18.40821311601057
C         9.07090651098598    5.17806506468262   16.29302831842607
C         9.43637298353259    5.85162022709751   15.11001582379591
C        10.49022416157246    7.56739179211307   18.96221384407421
C         9.88419832866334    8.97613609364485   19.03728599356843
H         8.80220237182936    8.92537278737118   18.93549378866904
H        10.27167483054169    9.61778443337945   18.25087593719108
H        10.11989246472097    9.43395014677943   19.99540212630508
C         9.97204432165798    6.76116272500365   20.15571694224053
H         8.88787290089324    6.68091648198038   20.13311224585117
H        10.25238654080462    7.26294509405337   21.07955395019107
H        10.40526172665719    5.76421583154446   20.17244794738243
C        12.01928901960063    7.65236300589642   19.06838155458155
H        12.30515027345404    8.07668798202645   20.02833458549687
H        12.43783086349718    8.27502126236980   18.28275993663937
H        12.45663085566083    6.66004568798808   18.98490723449752
C         8.26119042453215    3.88704496519859   16.26232996994043
C         6.82222597711231    4.25704700628411   15.88006525487524
H         6.38316721079972    4.89425161656526   16.64605246773453
H         6.21645591364465    3.35986470234364   15.78227354923839
H         6.79188527427774    4.79075403031257   14.93466028608263
C         8.85681598539513    2.88622873585739   15.26183984892787
H         8.75924891627262    3.22087152854213   14.23307503332167
H         8.33970665788118    1.93293987986432   15.34530465489339
H         9.91249151553824    2.72589747689265   15.47479580134531
C         8.22270486413546    3.17967818223934   17.62424932874731
H         9.22654162246770    2.96802581360588   17.98590570715566
H         7.69795663443069    2.23353792709217   17.51284423946435
H         7.68508039106688    3.76210049816124   18.36856024854715
O         9.08362091317228    5.43225029836136   13.88599959128231
Cl       10.97815264167158    5.64380244815734   11.59053945894618
Cl        9.08548471542026    3.34182207192949   11.23336841277068
Cl        6.53164361885570    4.26241146142400   12.50792280607300

