43
CSD_code = FIWFEX | q = 0 | S = 0 | Stoichiometry = C16H21N3O2W | MND = 8
W         1.42988006362655   -4.73620784991899   -9.92045921159037
C         2.58701819083973   -6.20282539012183   -9.32059756769270
O         3.30181715353074   -7.03338531581350   -8.96093421062904
N         2.92012305317608   -3.96811624577298  -10.48817263009169
O         3.86882567915478   -3.47186641861165  -10.99669689406891
C        -0.88356048897168   -4.22522991098573   -9.91346064480776
C        -0.28371627741079   -3.55562121248744  -11.00641930989903
C         0.18608133407824   -4.54159645142604  -11.91094335024101
C        -0.09286505907998   -5.81059611111495  -11.36195167372239
C        -0.75406765774125   -5.61579037458698  -10.11784139268267
C         1.68220339031816   -4.24322603394048   -7.90288124253107
N         2.63151858934880   -3.59217614389364   -7.26411705818446
C         2.69237594020866   -3.49969983437575   -5.81151561852436
C         4.10310505181725   -2.97833878380723   -5.52382568317015
C         4.42569195589470   -2.15325375445025   -6.76413989321073
C         3.78721702201396   -2.96958871932362   -7.88414873071570
N         2.46222788351165   -4.78547930371083   -5.20177978272210
C         2.20085629739727   -4.72903365271248   -3.77330170747540
C         1.43145156476760   -6.01376990756448   -3.49245320860606
C         0.53199996453017   -6.11768619213762   -4.72096382980366
C         1.43151042489331   -5.59898522460010   -5.85083694103851
C         0.67888594636070   -4.79719148200292   -6.92227105784540
H        -1.45425833421524   -3.75010408236200   -9.12409358686765
H        -0.35156566918479   -2.49465071957662  -11.21078688077749
H         0.58313534191896   -4.35163951532795  -12.90008060941847
H         0.03567433141156   -6.76076046937184  -11.86373404247993
H        -1.24642300913221   -6.39246185597985   -9.54429111823903
H         1.93696095670784   -2.75219540844325   -5.47582124389058
H         4.77301851066840   -3.83434486424122   -5.44708071003119
H         4.15230764069338   -2.40297373846057   -4.60221379615732
H         3.95473158917629   -1.17168610469810   -6.69596380669346
H         5.49362789911826   -2.01720047152193   -6.91279519538350
H         4.46836925262958   -3.74601284344586   -8.24863430127563
H         3.47351252983160   -2.35280975634131   -8.72833912784525
H         3.14345811363304   -4.66872969076132   -3.22568726523436
H         1.58885988139586   -3.84931269199327   -3.50669864086552
H         2.12096038777498   -6.85656261474171   -3.46116573365685
H         0.87615982108658   -5.97170699071299   -2.55787099850105
H        -0.33696191781146   -5.46669638848916   -4.60344115177262
H         0.18260853647490   -7.13076939410162   -4.90601368761896
H         1.93659775889399   -6.43789865834242   -6.35010390159653
H         0.14330505777605   -3.97158631308716   -6.43684812088852
H        -0.05055870111251   -5.44693311463601   -7.40782444155434

