51
CSD_code = FIWLEE | q = 0 | S = 0 | Stoichiometry = C16H26N4NiO4 | MND = 4
Ni       11.91302681980577    1.15877156660863    3.94636724401529
N         9.57277114859890   -0.21514019711309    3.09095800344364
C        10.91001282738188   -0.09649428159058    2.98577856526659
N        11.27456311032170   -0.92864998513501    1.99031684560848
C        10.17626602678921   -1.56487022517722    1.48089151360723
H        10.24190629762852   -2.27070110874286    0.67824950817744
C         9.10386717342081   -1.11229216836704    2.17290612003314
H         8.06524248126968   -1.35756566256864    2.08641095768468
C         8.72955048241182    0.56860376151795    3.96443527747031
H         9.37814207707120    1.06173153494317    4.69707913500865
H         8.03037053971652   -0.10292440681518    4.47331047173372
C         7.97972804507726    1.63639535319835    3.17469265767480
H         8.70362362523729    2.30950117290265    2.72322435919716
H         7.34551982291762    2.20759175752701    3.84612001860422
H         7.36102924198690    1.19509599819672    2.39475389163266
C        12.61881895332468   -1.10209426478238    1.50887902171445
H        13.09937813493071   -0.12223441921923    1.46423023723927
H        12.59397651484080   -1.54642579684009    0.51556656015706
H        13.18597724500689   -1.75026239582542    2.18072464064428
O        12.74048196110848    2.55930490513646    5.05756347002407
C        11.82242451952050    2.75232830253908    5.90196938944465
O        10.84999026587318    1.98769863742589    6.02635505593942
C        11.96187758909331    3.96742617670645    6.80734869725316
H        12.99810565532156    4.08706983554074    7.11317372861664
H        11.31692274098799    3.85949355205144    7.67475921363870
H        11.66267588819103    4.85040842955444    6.24621663332925
N        14.25322867453223   -0.21525884543385    4.80173624982171
C        12.91597347463848   -0.09662352170803    4.90684543964555
N        12.55141027056491   -0.92872801152086    5.90234631854183
C        13.64969553474192   -1.56492369075087    6.41183009759815
H        13.58404812340904   -2.27071132353096    7.21451067737393
C        14.72210930500300   -1.11239082104996    5.71981183304284
H        15.76073542837116   -1.35765200407801    5.80634105904389
C        15.09653813541423    0.56847415966590    3.92836230048391
H        14.44805315476803    1.06176617364104    3.19574015398433
H        15.79567837673770   -0.10303670273131    3.41941664247748
C        15.84627369038756    1.63647227851709    4.71779590859727
H        15.12239433658901    2.30949015272003    5.16935110017739
H        16.48059369453074    2.20774749068193    4.04662120623788
H        16.46472571884518    1.19532288001815    5.49788991891331
C        11.20716444516279   -1.10210441201278    6.38382619578436
H        10.72664283632251   -0.12221883550769    6.42843841431702
H        11.23203386863870   -1.54638494631152    7.37716240705102
H        10.63996901601857   -1.75029999279733    5.71203182438448
O        11.08557841278951    2.55937335578498    2.83522521457643
C        12.00359383237235    2.75230388897093    1.99073379800639
O        12.97608888387509    1.98779929949062    1.86629932489550
C        11.86408582444628    3.96746783605950    1.08532337400913
H        10.82786277118236    4.08706508171622    0.77950766580616
H        12.50903850400278    3.85951614757512    0.21790762223381
H        12.16323449884556    4.85046829094604    1.64646403580994

