79
CSD_code = FIWNEG | q = 0 | S = 0 | Stoichiometry = C27H40MoN4O3P4 | MND = 6
Mo        1.94536198974817    5.02315628097857   16.12873356399164
P         3.36012447586871    6.89114418315458   16.37411323804297
P         3.10371836260783    5.59253843078342   14.04742963336986
P         3.94488220429018    3.80851929401478   15.80325192140231
P         4.86399556135720    5.29263296646550   18.02034071616673
N         4.79799376831251    6.89537987240116   17.28551507718917
N         3.88724771617938    6.92094865401590   14.75420799433367
N         4.16592959089876    4.25720834338126   14.17491939554565
N         5.29727869546806    4.42863619252310   16.61192289134853
O         1.58646822319389    4.45691380305879   19.12591770959589
O        -0.47590836126077    6.92424190220132   16.01182377436233
O         0.36246236661029    2.53314822936745   15.24053052057452
C         2.78211449401417    8.61261179263665   16.67350188597715
H         2.00883426020811    8.82761340052096   15.93053882903181
H         2.29936117577847    8.57967927090805   17.66018490858680
C         3.91237651729550    9.59179321406685   16.64795591296072
C         4.98391696350975    9.32531828142747   17.39846387977604
C         4.99809413471851    8.04509569703260   18.18569614458778
H         5.96481076981997    7.92147505501876   18.67942353760779
H         4.22401380915436    8.07381995341215   18.96633047178561
C         3.74706912218975   10.82218728656277   15.80252612646522
H         4.67462750025510   11.10179104042284   15.30740268529030
H         3.42937609354459   11.65983345183117   16.42472050662507
H         2.98382422905294   10.66565348751344   15.04363482714823
C         6.19777669040235   10.19320427563413   17.53250981035420
H         6.08926704162646   11.12842311540896   16.99358924497314
H         7.07917323578711    9.67131820739348   17.15765558168084
H         6.37214964944515   10.42147359267748   18.58387270990829
C         3.27402359110226    6.14514189390442   12.30153408807858
H         2.91453331019649    5.36018821797301   11.63186361732035
H         2.59301550188422    7.00089987715452   12.20970525388090
C         4.69278414779749    6.54148457599418   12.00591753205998
C         5.40024272414696    7.30657733402810   12.84160277392419
C         4.83033561391536    7.83424764356944   14.12839914665489
H         5.63906988430773    8.03147578567538   14.84421124333982
H         4.33527157375269    8.79576107726132   13.92124716074750
C         5.27234000512966    6.07667907378357   10.69798460754008
H         5.36191832875641    6.91984749137898   10.01139367861522
H         4.63841416749247    5.32974791908787   10.22669163550463
H         6.26806669468309    5.65588930552822   10.83054728266055
C         6.80169989422284    7.74338447367380   12.51826479886515
H         7.49092831344460    6.89882622287919   12.56014368141750
H         7.14383606219657    8.49685509816070   13.22291200729932
H         6.85486662770099    8.16091371519129   11.51399300132709
C         4.23398436541966    2.00779627976538   15.62373865287076
H         4.55962939134910    1.61999274832917   16.59675346365905
H         3.23681120462508    1.58634285400293   15.43251881422867
C         5.17047231929284    1.56903045335163   14.53128405059805
C         5.58772911613926    2.33272114958096   13.52199296684438
C         5.21190384177449    3.77366596721242   13.29651338848241
H         6.12343424453347    4.39022157693183   13.37969070349425
H         4.85692712172744    3.86403870920277   12.26325509506854
C         5.60147541008415    0.12923616734304   14.63283262380301
H         5.39800147937949   -0.39948195770681   13.70297939629654
H         5.07165706527097   -0.37522217872847   15.43639392215999
H         6.67223289684086    0.05434372761694   14.82653695983508
C         6.52157808206000    1.79340496817066   12.47122647950599
H         7.38530126109869    1.30958182672616   12.92475229109346
H         6.87418916294797    2.59130861651045   11.82230848670858
H         6.01468788727236    1.05119171772576   11.85477269892621
C         6.58834154283816    5.37648079838940   18.71673982897915
H         7.18173167507713    6.01010626825986   18.04681423186493
H         6.55405330359992    5.82907616158453   19.70870564849562
C         7.15048122054849    3.98950328781302   18.78416830968353
C         7.22455321137724    3.29348151135291   17.64824821914074
C         6.66661744648892    3.93996603471714   16.40869039897689
H         7.29588288762899    4.79127994443348   16.11152489142514
H         6.65209449238140    3.22475938836081   15.58487553886606
C         7.54641808743822    3.51588755332349   20.14712312125605
H         6.67660207635892    3.54345623863495   20.80328852341063
H         8.30389911680032    4.17675995596652   20.56934294685974
H         7.93415933862667    2.50260747970641   20.13690000546568
C         7.77971885596586    1.91311124614728   17.47610668709242
H         8.38474285045673    1.60846627014109   18.32422498641852
H         8.39913151047863    1.87294303174785   16.58044971209677
H         6.97056137005483    1.19250148984162   17.35494056557267
C         1.66942790681208    4.64995846802612   18.00245616382859
C         0.39974448186007    6.19027592552778   16.07073152971832
C         0.91763705467974    3.47002733994602   15.59029368931817

