71
CSD_code = FIWPUW | q = 1 | S = 0 | Stoichiometry = C28H33CoN5O4(1+) | MND = 6
Co       -0.16701522408442    6.52133133288877   13.61332458628330
N        -1.85307744194035    6.20450678303731   14.45543625434314
N         0.30589560321455    4.74742953156451   14.32869274066112
N         1.61158445699063    6.55712627646541   12.81923091021806
N         0.73246339049887    7.46984910238156   15.04726118398677
N        -0.96689943386236    5.87615259206722   11.91776161191217
O        -0.63010175813198    8.18364332124554   12.98311727851791
O        -1.58162286097465    9.36306507146395   11.39280316773422
O         0.02912101920673    7.77578376240809    9.04491942014738
O         0.92912105311585    6.16736152511728   10.32497469266476
C        -1.20780861769560    7.01158294636632   11.00982418650581
C        -1.16946201531793    8.30591751558445   11.79764201709610
C         0.07141306731816    7.01872770523441    9.97045990681824
C        -2.50176573828872    6.87112812161520   10.20355210774487
C        -3.68368295572819    6.68409890471306   11.10960763238324
C        -4.36336978351094    7.78385796898939   11.62231733994276
C        -5.43631460740163    7.60895633311767   12.47692478002183
C        -5.83901165086557    6.33417248348250   12.84359634025393
C        -5.16505884772441    5.23283626672532   12.34701726206753
C        -4.09504889959195    5.40781472373305   11.48441240576380
C        -2.05911565622779    4.91830913848113   14.78505154617216
C        -3.23504645596577    4.50568492721380   15.38869505989752
C        -4.22108791132731    5.44345569594963   15.65741309989660
C        -3.99566422361322    6.76729246988343   15.31476164839218
C        -2.79717629725422    7.10624973888316   14.71174548850916
C        -0.93376863686078    3.96729508957373   14.44792935299039
C         1.38330313562292    4.21264411879069   13.47366456713845
C         2.36975148963039    5.37146359870879   13.26764449369283
C         3.45158029917552    4.95102178532314   12.27305409278022
C         4.18054720388768    3.71622413736960   12.80106573954000
C         3.20760151805327    2.57151134856455   13.06866157763221
C         2.11094823785756    2.99856477710710   14.04629210946588
C         1.80879105815796    8.13907472690541   14.60787386053693
C         2.45988714092681    9.07549339630014   15.39971710578129
C         1.98265700600282    9.33797278918629   16.67119216899827
C         0.87342110471050    8.63503306897608   17.12136815687684
C         0.28111718607846    7.71587235230236   16.27751924843133
C         2.23774210067007    7.81895503735550   13.20644311142639
H        -3.37449044587771    3.46649881442160   15.64097938249498
H        -5.14471025827693    5.14295330680973   16.12570239211791
H        -4.73252710166465    7.52844630352882   15.50731709138000
H        -2.57537028934634    8.12156480028839   14.41366783336982
H         3.31855744068420    9.59700770975018   15.00817690049077
H         2.46150826091616   10.07339713684772   17.29797915365513
H         0.46798965970085    8.80224349073487   18.10557140598267
H        -0.58697807518589    7.15799258475618   16.60115683349952
H        -4.05155178132604    8.77518257314125   11.33279140808727
H        -5.97204268215589    8.47046482238156   12.84595701753275
H        -6.68934082445179    6.19845259107646   13.49494073341229
H        -5.48395445181503    4.23516122703171   12.61263156541074
H        -3.61904779924478    4.53453155919430   11.05312209594907
H        -1.82740512399831    5.32374528124800   11.96492651642745
H        -0.23441124488803    5.34980928333532   11.38939728983805
H        -2.59969750365186    7.78796946922153    9.62083293410104
H        -2.40743196893913    6.03028028008639    9.51137574010297
H        -0.86090519818291    3.18034620862810   15.20622016500986
H        -1.14526340442464    3.48190881264174   13.48930648007300
H         3.32861069474798    7.78450348001440   13.11809636233595
H         1.87034267620103    8.61383682716704   12.54841135828849
H         0.95243888551360    3.93883633850708   12.50588767765189
H         2.83402950139226    5.60236772279824   14.23679000213584
H         4.16432813140465    5.76239835742076   12.12449834910685
H         2.98819117066576    4.73697392007474   11.30875236038078
H         4.70693937717213    3.97023145229785   13.72394952064584
H         4.92493397297737    3.39755471413854   12.07280342838423
H         3.74679567608686    1.71831398043006   13.47907663183402
H         2.75092885493806    2.25644446078751   12.12923274045042
H         2.55763157220583    3.25258446179910   15.01108843444610
H         1.41361740246996    2.17338267932567   14.20000450091549
H         0.69798028420356    4.84152619664256   15.26790123933078
H         1.52945753738300    6.48942868840871   11.75928620193441

