47
CSD_code = FIWQUA | q = 1 | S = 0 | Stoichiometry = C20H22N3OPt(1+) | MND = 4
Pt        4.21889843850152   11.12023728001316   10.47355697248192
N         2.37168259980609   11.02409220472848    9.79014091444744
N         4.05615972790930    8.96767587398549   10.53935823225134
N         6.00389527958006   10.79517351175855   11.24778662876197
C         4.44345797939303   13.13321518421421   10.22914491394661
H         4.11116132238972   13.66751691430949   11.12555201466209
H         3.85973010222599   13.50009882588854    9.38129901842905
H         5.48647806694513   13.40108996027658   10.04313731115986
C         1.41625479123295   11.95507158948259    9.82442389865711
H         1.71517609627507   12.94409812887408   10.14183543930516
C         0.10511256070465   11.68957138775633    9.47063253643680
H        -0.63135902738444   12.47492460597141    9.51140592972195
C        -0.23487893552568   10.40791270194550    9.06878512022033
H        -1.24638658089387   10.16577885351567    8.78420087379584
C         0.75434726876811    9.43647481489817    9.04871462397946
H         0.52857488289484    8.42363513754670    8.75753535712352
C         2.04674532189348    9.76963838821515    9.41769615208956
C         3.16214815995910    8.74725334534643    9.40031843863716
H         2.74396774627863    7.73643398135021    9.39156856511446
H         3.72702257433579    8.88795067107123    8.47052571089104
C         5.45772911874065    8.60903853879657   10.31475977333562
H         5.70335328700483    8.78669867683399    9.26034116473433
H         5.65436822116629    7.55147003561026   10.52966301659194
C         6.35877920281031    9.49804620988282   11.14433572697910
C         7.50550063756411    9.01086906774811   11.74902899160279
H         7.76743599562696    7.97002961258691   11.63985100387722
C         8.30716125165462    9.86895250221135   12.48753486688855
H         9.20456437196557    9.50639527676630   12.96279646417772
C         7.92262344860138   11.19477312301656   12.60524179060823
H         8.50808663368668   11.89590084763263   13.17655582266599
C         6.76624919942852   11.61648617688558   11.97249513062348
H         6.43962685781780   12.64449289404826   12.04184931627501
C         3.51642223390120    8.43349699276504   11.80227425823485
H         4.10096139154149    8.86531116832624   12.62203643769129
H         2.48267779649644    8.77967159917926   11.88930870380617
C         3.53971009518538    6.93004510885860   11.93053055054552
C         4.63740862441781    6.28262534147602   12.48554991370994
H         5.47106916131760    6.87305557599901   12.84005776724617
C         4.66814571626618    4.90695473613371   12.62341784716127
H         5.53130597442991    4.42581895344075   13.05476639150501
C         3.57791570209514    4.15472471103517   12.22155980481903
H         3.58600003425928    3.08203282757109   12.33134958171656
C         2.46493809086232    4.78003145793892   11.69240820320839
H         1.60232854923270    4.19800873087162   11.39817426163485
C         2.43865502317641    6.16080979103389   11.54227244526733
O         1.34609942056381    6.79585776912530   11.01883029595759
H         0.62229558490274    6.16355891307642   10.93109181702161

