110
CSD_code = FIWTAH | q = 0 | S = 0 | Stoichiometry = C34H68MoN4OP2 | MND = 6
O         2.82197097893954   14.28115186247057   10.77096485521051
Mo        2.24731874473939   13.82401641857239   12.23478864381154
P         0.49628166068711   12.39015983074716   11.29058003786063
P         3.83572711088474   15.14124479867694   13.57219160025636
C         2.49333586984441   11.11803750688501   14.63299483924160
C         0.49620205355104   12.33662210368769    9.44588286745881
H        -0.28852798651116   11.65097999460823    9.11097747761518
H         0.23209633537263   13.34280493670852    9.11083537300692
C         3.52327555547899   10.33150061257356   14.12918559510711
H         3.90589476848764    9.41800545090997   14.53587896599014
C         1.84589941338342   11.94744383487952    8.86506362065210
H         1.84536806927023   12.06370272355790    7.78273670222123
H         2.08536078846975   10.91134246761499    9.09534791564351
H         2.61602668763044   12.59551512619267    9.28610013661105
C         0.52630631885002   10.59492322392430   11.76390340267343
H         1.54088743731021   10.24625079035076   11.54702703277122
H         0.41385348856299   10.56987221160900   12.85173092989679
C         3.95931360508558   10.99021636760863   12.97263355256261
C         0.15540186543460   16.44436565856978   12.41089012938610
C        -0.49240164672445    9.66666505389738   11.11474389031665
H        -0.36844263063536    8.65908672146185   11.50951267448625
H        -0.35745715901990    9.61850722597157   10.03699852367425
H        -1.51102468095029    9.98368996453704   11.32428905038027
C        -0.46965105043507   16.79213677690384   13.60985961216450
H        -1.12378381210483   17.62141765044058   13.78266919230948
C        -1.29355032816184   12.82863402177583   11.50939272782552
H        -1.38649013528054   13.86134470429158   11.16321845750157
H        -1.91415813747409   12.19841672477698   10.86530884926156
C        -0.05291261425816   15.83584376187754   14.53220214783494
C        -1.74810228147922   12.74651576117572   12.95824766079668
H        -2.75043340089563   13.15746635224410   13.06997764035611
H        -1.06897443104552   13.32206089901380   13.58511248084289
H        -1.76257878189272   11.71738493801963   13.31033697643098
C         3.27226035799137   16.82833516393779   14.11376100378179
H         2.70754916842167   17.24686616739332   13.27840602791848
H         2.55664265634631   16.65220155415452   14.92191324494674
C         4.33302132937515   17.82684855100532   14.56354051152173
H         3.84539973353933   18.71707713782013   14.95830950857593
H         4.96421252008009   18.13503847103388   13.73425149161426
H         4.96860194991919   17.42277243196571   15.34862492248079
C         5.43049712999807   15.50294995930300   12.71991921573459
H         6.07556864112242   16.08663946931869   13.38378663338649
H         5.90509203837636   14.53681541320279   12.53402790375848
C         5.20964075935648   16.21002273244303   11.39080034401983
H         6.14280245394589   16.28569346966912   10.83526917090268
H         4.81389670284209   17.21318150108789   11.53637059344731
H         4.49535410590768   15.63701239671102   10.79617489238851
C         1.69750801791197   10.87409538401439   15.88778085515062
C         4.42421115971688   14.49921618919226   15.20850900973888
H         4.81682554355725   15.33327000137190   15.79684224409553
H         3.52743496856026   14.12703707996271   15.71236527250568
C         2.43826826705110   11.51034712270047   17.07248024706586
H         2.48515057625264   12.59015794026295   16.95860112944415
H         3.45460931446261   11.12607244127796   17.13317970946599
H         1.92506408600235   11.28446488638714   18.00554616651155
C         5.46392187817901   13.38947815838205   15.12827751990079
H         5.63012573962163   12.96403784397996   16.11713695258774
H         6.41498454415055   13.76886745642564   14.76052276761807
H         5.12821999540382   12.59277444193658   14.46917474394913
C         1.56157436045023    9.36827071481870   16.14331896065919
H         2.52481510622726    8.92438135814773   16.38080886820024
H         1.15647260576523    8.86408888979384   15.26792140984662
H         0.89120274055284    9.19498221467646   16.98326419940162
C         0.30223725491267   11.48818967045337   15.75696551074899
H         0.37524711848690   12.48400146089782   15.32668799176195
H        -0.18108291557311   11.55042027217235   16.73021602724936
H        -0.32077060619485   10.87697793561138   15.10653752018537
C         5.03227438021202   10.57923339122996   11.99917242039498
C         6.17495310787665    9.87614023745325   12.74085508855595
H         6.56150620867076   10.50744035327229   13.53855574740356
H         6.98683789908422    9.65612840279350   12.05036220464598
H         5.83582721791844    8.94015142619138   13.17727134458938
C         5.58162037941495   11.80708750759210   11.26713613627928
H         6.18748992798293   12.40421825824944   11.94560361248404
H         4.76828017154395   12.42853134777118   10.89027644193380
H         6.20797188876677   11.49885813342487   10.43241620260947
C         4.42247655965975    9.60827172057200   10.97891485711103
H         3.95252048730711    8.76678066908739   11.48506244655684
H         5.19268459405007    9.22462946774389   10.31250755164333
H         3.67457154827077   10.12348118414461   10.38160007168890
C         0.15055271057947   17.15606494997203   11.08220178687076
C        -0.08709857857294   16.15259776775562    9.95038113527577
H        -1.08167414484695   15.71640719520683   10.02596301043530
H         0.66543142755803   15.36470362360676   10.01024637115355
H        -0.00436869142205   16.64705665026943    8.98406237197806
C        -0.93389022913920   18.23544901556673   11.05274359113972
H        -0.73737556054751   18.99990155611217   11.80065012820411
H        -1.91179207652562   17.80145311738935   11.24997368747389
H        -0.95882242238542   18.71243802730037   10.07468795581307
C         1.52702644963629   17.79894570820128   10.86351501522967
H         1.73968110018723   18.52991107802603   11.64226947796800
H         1.55902438012268   18.30689472087629    9.90126428840994
H         2.29142205999286   17.02163502912836   10.87483696074548
C        -0.42156559352324   15.75653529548707   15.99108218672860
C        -1.66286852628624   14.86834640656483   16.15789303497013
H        -2.47283269817975   15.23161260496978   15.52843843618500
H        -1.99811244003133   14.88006159668701   17.19383787469158
H        -1.44347607301091   13.84200036642214   15.87801057275023
C         0.74078675716476   15.17428654060905   16.80039434376664
H         1.55731928760676   15.89179894858102   16.86617181223078
H         1.11083464008855   14.27447226188511   16.31885427503918
H         0.41787369992939   14.93039847000037   17.81097466983548
C        -0.74534991121555   17.15650998810970   16.52625112254446
H         0.06876648097950   17.84720369730984   16.31501959175454
H        -0.89399614385958   17.11619520722147   17.60406611034567
H        -1.65336618363972   17.54529045539682   16.07281717904836
N         2.33386002563173   12.18357135517721   13.82465846178354
N         3.21681291885152   12.08421738090269   12.82931885159407
N         0.87780497822368   15.34463045186149   12.63703548910165
N         0.76218700804003   14.96314607582575   13.91086994831507

