57
CSD_code = FIWTAG | q = 0 | S = 0 | Stoichiometry = C22H32MoN2 | MND = 5
Mo        1.06391139102871    4.57820642520608    1.24020910195415
N         2.03441688380079    3.29987313237703    1.91699781014266
C         2.39473968962257    2.09269743300053    2.54531648460034
C         1.58537021998381    0.93977901048783    1.92289583376426
H         1.79970479855236    0.00095170545988    2.42810022220787
H         1.83573222178764    0.84543473694156    0.86833359549038
H         0.52258322138382    1.16480235241717    2.00802149503696
C         2.06243792223625    2.19997158626147    4.04714620657121
H         2.26475035252786    1.25948760054053    4.55392633757646
H         1.01029409156352    2.45797402134356    4.16363856463986
H         2.66326496520852    2.98417670146869    4.50390553386442
C         3.89836829081807    1.81736814047678    2.36749892546654
H         4.17671676928353    0.89202100697761    2.86600262847245
H         4.47799292767650    2.63569903745062    2.79016977408120
H         4.12978307908577    1.73606557088268    1.30811432153623
N        -0.65684303152244    4.36653439980532    1.08238986657066
C        -1.96473184764669    3.85856417371254    1.21082541123484
C        -2.17106960043734    2.69572731687483    0.22207783797754
H        -3.13929945716352    2.22626720571523    0.37937770719893
H        -1.38169476174938    1.95864344594374    0.36595691095417
H        -2.12223487454654    3.06636623419960   -0.80000549008658
C        -2.15273731471905    3.34095228713550    2.65041980977110
H        -3.15560312582836    2.94511464864019    2.79252212365830
H        -1.98409003530424    4.15332760416105    3.35555191419139
H        -1.42221630069319    2.55754985489877    2.84618894924499
C        -2.99695364729679    4.96560261720603    0.92540243000960
H        -4.00849412160364    4.57665415619342    1.01300178344726
H        -2.85294329295175    5.35445988903556   -0.08070270826881
H        -2.86822020136378    5.78119744637703    1.63428080483301
C         1.25575610602806    6.18580973530812    2.70114878194617
H         1.86534838307564    6.02419876759804    3.59712693736420
H         0.35403266050870    6.75235535455122    2.96280737250311
C         2.00455097502705    6.79114284078768    1.60563435096193
C         1.34125865928647    7.50953293232392    0.58782205739802
H         0.27776163934467    7.71339863851128    0.69143741457460
C         2.04608193660653    8.04335346619542   -0.47741720388107
H         1.52531771437047    8.61352204051848   -1.23384637848779
C         3.41672776394269    7.85470879177961   -0.57853344832118
H         3.96249486971950    8.27517561422145   -1.40966364627120
C         4.08425223041431    7.12441555982061    0.39632037870998
H         5.15247736152721    6.97802496178954    0.31918408360061
C         3.39340793591762    6.58852734093030    1.46685871683456
H         3.92980607765325    6.06124597866051    2.25002581266902
C         1.70517860517974    4.61815197865683   -0.86391670985538
H         2.51600605397996    5.33991748694363   -1.04851485100510
H         0.86089676043798    4.88963967526223   -1.51643153993998
C         2.17884445275441    3.26359326390873   -1.20457034359483
C         1.28136348667091    2.25732244100605   -1.57597514148415
H         0.22487942055606    2.48908707904140   -1.62282863591710
C         1.72274524793932    0.98342990364213   -1.87732407984085
H         1.01036816511955    0.21975277437210   -2.15683451977121
C         3.07468100525815    0.68027322945486   -1.82837945313302
H         3.41978707705540   -0.31543595985110   -2.06482145223989
C         3.97991497233950    1.66985987045416   -1.48068522936035
H         5.03747163812598    1.44550011052532   -1.45163523341501
C         3.53959459915527    2.94471716260574   -1.17985606119066
H         4.25665899028616    3.71230921979511   -0.91479616499855

