35
CSD_code = FIXFAT | q = 0 | S = 0 | Stoichiometry = C13H17NO3W | MND = 10
W        -0.12840614866614    1.80334192098051    2.33636980187920
O         1.24921463482754    2.26274482646676    0.61481646781882
O         1.93856205862870   -0.37599951108253    3.16796443968006
O         0.72994506137879    1.80727429087093    5.33041157072547
N         3.16024156698721    2.78424150009451    1.71162126495573
C         0.96198788993978    3.79150764805923    2.31147311413831
C         1.83074826292730    2.94194941841539    1.52304337486483
C         3.83867462490257    1.69911786694579    1.01895527521780
C         4.45673973141020    2.17771114430281   -0.29128634228176
C         3.91756916001169    3.50689421971107    2.71088364825097
C         3.89585810362891    2.81816668001601    4.07376905978553
C         1.17258133695683    0.41632150552824    2.80654442125490
C         0.37610826162588    1.82996204823782    4.22500009064390
C        -2.17250479256384    0.77899385549772    2.46648367961545
C        -1.71854199530227    0.60984159724158    1.12801820620668
C        -1.65082361119509    1.88451149452639    0.52562472783244
C        -2.05606737424484    2.84972717426055    1.46626132506420
C        -2.37699514040466    2.18444920095636    2.67240310383880
H         1.40964308426432    4.32753765869318    3.14181701374153
H         0.34996611942660    4.44936212601955    1.69121061411491
H         3.10247288740083    0.91715730361244    0.81151516883295
H         4.60655652088764    1.29167410623379    1.67946285467852
H         4.96368397569033    1.35406082806890   -0.78633102417254
H         3.67688432827494    2.55429185426926   -0.94763321227990
H         5.17620277817185    2.97354207824222   -0.11103394216844
H         3.51741987471483    4.51999093435114    2.79363889745438
H         4.94696800024954    3.58264077622155    2.34975469543525
H         4.50487000838121    3.37493748432037    4.78078863886017
H         2.88028633049856    2.75829887093755    4.45461001353774
H         4.28749775808376    1.80717977082333    3.99763894314760
H        -2.51914349319747   -0.01050219388031    3.12414401372340
H        -1.58958968281336   -0.33620486064717    0.62085015790358
H        -1.41138049748519    2.07658311772471   -0.51172228304574
H        -2.22192937238260    3.89894093380600    1.26424651794743
H        -2.87120025101082    2.62535233017915    3.52968570280407

