41
CSD_code = FIXGOJ | q = 1 | S = 0 | Stoichiometry = C10H24I2MnN4(1+) | MND = 6
I         2.10960683321043    2.55841616060198    0.00006470116804
Mn       -0.00000249802709    4.18150177127543    0.00000000033773
N        -0.79716794103680    3.01922443771274    1.55100545128328
H        -0.15804094860548    2.22373669318440    1.66813800287741
C        -2.15185017101194    1.61467257841346   -0.00000023516903
H        -3.07884067694339    1.04111188123278    0.00000073190979
H        -1.32618562962487    0.89606061064413   -0.00000294787657
C        -2.12270399856625    2.42506336782427    1.30663206657799
H        -2.87545056746068    3.21637698484641    1.27348243213528
H        -2.38210607764749    1.75254931654338    2.13320446503277
C        -0.67910694532246    3.81898324777903    2.78681158746309
H        -0.75808600221328    3.18600044823839    3.67735321269088
H        -1.49412915579339    4.54920436510463    2.81611973941353
I        -2.10960128481764    5.80457805985096   -0.00006470003277
N        -0.79717613338201    3.01923015661782   -1.55100639163829
N         0.79716741798656    5.34377602901577   -1.55100540928022
N         0.79717561051426    5.34377030996114    1.55100635034871
H         0.15804096063311    6.13926408531576   -1.66813854554468
H         0.15805036471641    6.13925865802950    1.66814252084415
H        -0.15805035301881    2.22374212000260   -1.66814197803012
C         2.15185038100946    6.74832753031428    0.00000023468335
H         3.07884108472368    7.32188794866017   -0.00000073249529
H         1.32618607391583    7.46693976101295    0.00000294734736
C        -2.12271067475683    2.42506810860652   -1.30663003306328
C         2.12270383087537    5.93793664022135   -1.30663196791740
C         2.12271050698905    5.93793189953819    1.30662993363546
H         2.87545673026675    5.14661830413423    1.27347574433154
H         2.87545025518170    5.14662288217411   -1.27348223800990
H        -2.87545704225825    3.21638156334204   -1.27347593888690
H         2.38211472283118    6.61044371545016    2.13320330157183
H         2.38210599710596    6.61045050873143   -2.13320442388641
H        -2.38211480369531    1.75255611033548   -2.13320334373656
C         0.67911387444389    4.54400987239269    2.78681103844094
C         0.67910658561327    4.54401707333367   -2.78681150183071
C        -0.67911423404148    3.81899044849240   -2.78681112351607
H         0.75809350032146    5.17699207486421    3.67735309012451
H         0.75808579492425    5.17699990472508   -3.67735306743702
H        -0.75809370717987    3.18600827786400   -3.67735323484959
H         1.49413578677116    3.81378840612537    2.81611793413150
H         1.49412873800322    3.81379586448010   -2.81611963304023
H        -1.49413620463369    4.54921182300701   -2.81611804010815

