90
CSD_code = FIXMEF | q = 0 | S = 0 | Stoichiometry = C42H38N4NiO5 | MND = 4
Ni        1.12838654243363    6.50285543372085    3.02584758948577
N         1.92929597827758    5.97309179004608    1.27595901633903
C         2.35027589167320    7.07717249605247    0.39821562449764
H         2.61212473528863    6.68208140134405   -0.59294853979379
H         1.55421457710162    7.81507476897036    0.30506799802640
C         3.58130450593667    7.60949473810530    1.10648659668003
H         4.17522425300222    8.27901896197720    0.48886899638765
H         3.26441695190263    8.14060390499441    2.00716622071213
C         4.31791051690345    6.32256293785182    1.47197771678758
H         4.91885533139002    6.42205240693187    2.37345945008750
H         4.97548701535516    6.01084822478995    0.65986433362707
C         3.18520651193218    5.29363848768926    1.66817646853611
H         3.36362450408341    4.41900635561202    1.02643929557152
C         0.99020443174208    5.08370762014004    0.56401813019723
H         0.26261982910873    5.72372657948352    0.05608114748877
H         1.53444181703961    4.49800751972250   -0.19033062106274
C         0.26572938787952    4.17602329836431    1.52368286368640
C        -0.79155565163003    4.69771583953727    2.27425824180575
H        -1.15145288560339    5.70421255247860    2.06942155521010
C        -1.43660842050370    3.90391007092283    3.20930236069069
H        -2.25951338623678    4.30476561922998    3.78258214372852
C        -1.03736389243760    2.59141483355526    3.40260921357504
H        -1.53618754884519    1.97719826152608    4.13666255831517
C        -0.00007764668526    2.06851663412679    2.65177674102661
H         0.30849641389673    1.04426741406995    2.79618081986981
C         0.65002883373245    2.85720490297831    1.71695484546255
H         1.46221936330882    2.44127529727510    1.13789689099833
C         3.13468704004821    4.75878169719541    3.10477021380738
O         4.08514994397313    4.13817627495231    3.54601799240750
N         1.98316615865138    5.05371406538753    3.76382880924345
C         1.53820066437212    4.30323758409710    4.82106383140060
C         2.02515398420207    3.00364325477680    5.05261642536863
H         2.82498390918070    2.63378171110688    4.43404612765287
C         1.50458472362430    2.19608497663192    6.03259323222490
H         1.90163094143645    1.20083996102018    6.16630884628279
C         0.46433220986904    2.64500776967334    6.84106648456221
H         0.04488921609646    2.00478039441293    7.60157541381686
C        -0.02053183260347    3.91485840163448    6.65741498347269
H        -0.83260866465784    4.26735550819686    7.27544687549895
C         0.49633711388624    4.77106795546474    5.67028699311104
C        -0.04164099903943    6.10755334192901    5.57726895179067
N         0.20708254579674    6.89405791825861    4.57787262579664
C        -0.86575793118251    6.58650821147022    6.72053092104868
C        -2.23093637285375    6.80953862444484    6.57249453761309
H        -2.71023716518273    6.58565111651918    5.62968413764968
C        -2.97335664586953    7.30325550969741    7.63081430145636
H        -4.03077445801729    7.47963788082532    7.50434224814969
C        -2.36430731052676    7.57327741975832    8.84442702860824
H        -2.94160987376908    7.97303512526719    9.66330809042978
C        -1.01078208709047    7.32880707418088    9.00386475672142
H        -0.53407113630031    7.52430747667487    9.95215840107802
C        -0.26259677078686    6.83803090254836    7.94891540557285
H         0.79406415278286    6.64578491210907    8.07192468995135
C        -0.23466748230875    8.27176273035374    4.59426583355886
H        -1.23827421134516    8.38057498211168    5.02344271757739
C        -0.20386930688361    8.81294874308085    3.14364892489604
O         0.34604604335001    8.03140422566707    2.30520799314679
O        -0.66040119285709    9.91741766372030    2.89982742647665
C         0.72484095174505    9.16857957802878    5.44982821832532
H         0.76886874739843    8.73018148788690    6.45287194063692
N         0.14842777517534   10.48529962218019    5.53522385909377
H        -0.17817563965528   10.79404012282079    4.61893365211490
C         2.11753083959151    9.15438721481068    4.86501345375930
C         2.93310306787695    8.04370892689077    5.08526071149359
H         2.58537072586193    7.22490083135561    5.70143977717766
C         4.23359091294267    8.01989401079246    4.60757011414358
H         4.85773763273126    7.16134071603391    4.80864324437261
C         4.73062462741491    9.09990786898392    3.89684775196868
H         5.74699538522480    9.08803522220670    3.53178128974179
C         3.91891236041766   10.19692965188494    3.65963228486634
H         4.30142975054134   11.04063901656061    3.10457659347055
C         2.61894211309449   10.22441869783809    4.13550126185594
H         1.99786974629600   11.08705190845817    3.95499705708029
C        -0.72968527812194   10.79705128199401    6.54903043080113
C        -0.49227058596018   10.42111087626838    7.87672519547828
H         0.40552207611287    9.88002934473487    8.13332080021148
C        -1.38874573316797   10.75179465264980    8.86489979835371
H        -1.21369690193334   10.45810197617661    9.88867885387532
C        -2.54145756704750   11.48083779189191    8.57170144464834
C        -2.75686652801819   11.90448974550730    7.25901649575787
H        -3.63867818360416   12.48063690993433    7.02664140729765
C        -1.86560516746503   11.56828699243415    6.26765086242913
H        -2.04165699795331   11.87734001379520    5.24730555371434
C        -3.48754337384446   11.76555961453134    9.65990759849103
O        -3.40708469291856   11.31037050532100   10.77868007758033
O        -4.48514887020458   12.59090686139489    9.28373193735764
C        -5.43438962955764   12.90727150049268   10.28684715535869
H        -6.22795984659501   13.46286410140287    9.79304954844565
H        -4.97304280098419   13.51555530884021   11.06835059692039
H        -5.82735208144108   11.99504588124388   10.74152815487619

