106
CSD_code = FIXROU | q = 0 | S = 0 | Stoichiometry = C45H51NO2OsP2S2Si2 | MND = 6
Os        2.49756768356668   -0.91519035036603    3.57948946878299
P         2.84343861055224    1.37801525713097    3.94322507498387
P         2.53963563444964   -3.08779736755026    2.69789498312876
S         4.85042492924195   -1.31941306478643    4.41618682002944
S         4.33152873991768   -0.49463797063116    1.67006981433886
Si        1.67795421786863   -1.44736649275945    5.76639508149806
Si        2.74125166813907   -0.17404092945647    8.39926064628220
O        -0.30333952887094   -0.49256246264864    2.51784653132869
O         2.24470422879224   -0.31001733371823    6.85322546963051
N         6.76251474418435   -0.94557431155087    2.62296710703224
C         0.78904478782288   -0.63798178734777    2.90032346409182
C         5.44665997679877   -0.92170328156780    2.88023924545858
C         7.74084869416655   -1.29333970328451    3.61974798269575
H         7.24520326791390   -1.52450797109699    4.55940807110466
H         8.42682473595942   -0.45619160578767    3.77378524537602
H         8.31012007370249   -2.16666619137695    3.29085047794576
C         7.30842317988442   -0.62046226289297    1.33139727583328
H         6.50370848420694   -0.38180795167613    0.63947881020089
H         7.87467577835868   -1.47159472557470    0.94438551298943
H         7.97703836679531    0.24028234424486    1.41609145002462
C        -0.22281669677114   -1.52424581164117    6.14273242015790
H        -0.44125930444409   -0.89784616742591    6.99898826576758
H        -0.51957743671654   -2.53915364672270    6.37988990254971
H        -0.83822769867434   -1.18664481264915    5.31669894498360
C         2.37472064917771   -3.10695171138339    6.47109418098966
H         2.03534167914294   -3.23745895116866    7.49289638862557
H         3.45972464164294   -3.08911955213423    6.48684454454158
H         2.04922436827189   -3.96908967753749    5.89934764474058
C         2.78193991438623    1.67910271340473    8.84059867647377
H         1.83260215086180    2.15415995619974    8.61677360626184
H         3.55286906701138    2.22685813846230    8.30926733889695
H         2.97090531883787    1.80020893148944    9.90269032550295
C         1.52459847923079   -1.01667192395973    9.60105906186472
H         0.54440512106987   -0.55292828831682    9.54640536261813
H         1.86662867776110   -0.93778933800680   10.62830799384033
H         1.39646303389319   -2.07038005635924    9.37634385706453
C         4.48248813953137   -0.94516871800180    8.56732732870805
H         4.42775944235020   -1.98282901675366    8.88245845338725
H         5.09404796337538   -0.41714073440963    9.29292861934191
H         5.00377708326337   -0.92528220494878    7.61428728582955
C         4.56032710859354    1.83638550617842    4.33868381103956
C         5.01132551868757    1.57926604207282    5.63197773570508
H         4.31107670220113    1.19720769962911    6.36124908037708
C         6.33781043326359    1.78482050238003    5.95819466896208
H         6.68172428110978    1.58425662428921    6.96257238795452
C         7.22851267457339    2.22834244998142    4.99207032772588
H         8.26824595621492    2.38189159644922    5.24477979469040
C         6.78857360441847    2.46313798653631    3.70014472792655
H         7.48416899880146    2.79803195086515    2.94290601471475
C         5.45948903170505    2.26354615490166    3.36773730361124
H         5.12341591941590    2.42816379268238    2.35264346584541
C         1.87227860728975    2.31649886377306    5.17133708916120
C         2.36396964389223    3.39972677160177    5.88828925882186
H         3.40787476973901    3.67497740879917    5.82198224502786
C         1.51892715787007    4.12526616751441    6.70986325493128
H         1.90638354398265    4.96642941783470    7.26695122231579
C         0.18461061396521    3.77432083660094    6.82435414530033
H        -0.46898613118759    4.34316811984165    7.46974654249055
C        -0.30725771750004    2.68966840064414    6.11579779498863
H        -1.34615552176008    2.40934344265234    6.20752923488086
C         0.53175468676456    1.96787603538540    5.28924071613562
H         0.16493280496548    1.11690055644331    4.73140008455807
C         2.50202669604360    2.48432358380192    2.51801701815565
C         1.93193112701639    1.99907244277208    1.35000516888637
H         1.70604968901205    0.94574030849045    1.26876502148919
C         1.66291560007755    2.84936606320632    0.29184375476611
H         1.22127012794925    2.45755185943868   -0.61264253130912
C         1.96015280816455    4.19677154097566    0.39338121584819
H         1.75248200706159    4.86262804300452   -0.43144942598722
C         2.52598481625693    4.69124308306642    1.55830830884992
H         2.75884194850427    5.74310809210414    1.64238293904540
C         2.79332724072315    3.84317176882853    2.61537593373655
H         3.23334948514947    4.23637771226713    3.52088666289329
C         1.98287446954898   -3.26337110612152    0.95769574278939
C         1.90036621646876   -4.53436155681844    0.39233907015664
H         2.16383830736081   -5.40280678379196    0.98006039651407
C         1.48566687077260   -4.68852434875051   -0.91615429287629
H         1.42542972383151   -5.67764207027161   -1.34686906331783
C         1.14685270402654   -3.57906693633302   -1.67539658447965
H         0.82083728160381   -3.70335611773230   -2.69766521820167
C         1.23065080262850   -2.31410182623802   -1.12118100238236
H         0.97269925408002   -1.44558556038553   -1.70912726121139
C         1.64745491203533   -2.15777511307393    0.18924520462589
H         1.72832862135905   -1.16926761442916    0.61712330956197
C         4.18382453209787   -3.86985044519046    2.58721844254105
C         4.92716516348567   -3.81463291265795    1.41277639190063
H         4.49268238937314   -3.38826701651247    0.51886533855699
C         6.22714941975097   -4.28913609490446    1.39153210792617
H         6.79739283659395   -4.24336411846216    0.47420668742141
C         6.79782481790990   -4.81165464900019    2.53967147060391
H         7.81471241352845   -5.17767782506352    2.52085802539428
C         6.06639501587714   -4.85698459290281    3.71635834306668
H         6.51377352971506   -5.25138909940905    4.61735271394243
C         4.76995242864687   -4.37968810539596    3.74458304109832
H         4.20552945360336   -4.38292995091257    4.66657378219990
C         1.48574241643013   -4.41070288193668    3.39379856216191
C         0.17912339723076   -4.03382848266824    3.69032531312184
H        -0.10611608912065   -2.99975426195071    3.55065019614513
C        -0.72484550260234   -4.96207476753607    4.16841384148129
H        -1.73639739293609   -4.66143776478839    4.39669798153662
C        -0.33029877618344   -6.27737304881551    4.35850868417094
H        -1.03211363829356   -7.00505072998632    4.73849305310403
C         0.96673347096593   -6.65844551373598    4.06100642532081
H         1.27616826290644   -7.68365943881169    4.20591853374899
C         1.87422655359420   -5.73265698387535    3.57425616731940
H         2.88379903418950   -6.04513407231306    3.34493088765430

