93
CSD_code = FIXRAG | q = 0 | S = 0 | Stoichiometry = C42H42ClNOOsP2S2Si | MND = 6
Os        3.25268813044938    0.00020433251964    2.85029534818172
S         1.16639722414993    0.00010005810289    4.51440244759177
S         3.97540802812490   -0.00004003574532    5.27414979235684
P         2.93712232500826    2.32926321722591    3.01766169956112
Si        5.58283544772832   -0.00007955938641    2.24014593248717
Cl        6.02222157944466   -0.00015585008209    0.18056195364262
O         2.26937587015568    0.00088248985477   -0.01340066771962
N         1.99678379256818   -0.00003987187046    7.03209536477420
C         2.63740279737718    0.00055559712282    1.08789727493209
C         2.34538386255560   -0.00011261140403    5.73949364806945
C         0.62426878290662    0.00000800146123    7.46645620165392
H        -0.03801750389024    0.00016066117109    6.60351787804806
H         0.42731491120249    0.88921385628971    8.07069618061995
H         0.42720322954853   -0.88933751487400    8.07045362967739
C         2.96607556696436   -0.00006083627250    8.09652179570957
H         3.97166340968756   -0.00021547211264    7.68291129439162
H         2.83451383679839   -0.89057594343900    8.71645050508539
H         2.83473853332465    0.89057013599507    8.71633846681803
C         6.66937014881779    1.47285620973497    2.87604250215650
H         7.68871736479193    1.35442877321166    2.52095059671552
H         6.69456461413785    1.47554565987319    3.96155549549652
H         6.31483212009219    2.43977672669078    2.53623200597954
C         3.99166571586252    3.48234116435409    2.07149016141259
C         4.26425086749948    3.10719626721724    0.75855746889821
H         3.89969215670354    2.15451905770674    0.39632197651971
C         5.01458534190104    3.92831150859775   -0.06023380615643
H         5.23122171506358    3.62196504040622   -1.07189744588715
C         5.49746130289406    5.13333333730157    0.42564430449499
H         6.09182112826958    5.77436653770615   -0.20842182669537
C         5.22198219538810    5.51451004442508    1.72785838500556
H         5.59717387720975    6.45383612994781    2.10837940905807
C         4.46803145441756    4.69643497212952    2.55188846571101
H         4.26611219742441    5.00334360273606    3.56926030757145
C         1.32520379342720    2.97802382839594    2.43373777155219
C         1.09112709147150    4.35069951691965    2.49245168447840
H         1.85117512555202    5.00945718357905    2.88931970278475
C        -0.10820244791533    4.87101081032379    2.04752380417005
H        -0.28227847753489    5.93619264374658    2.09779809522135
C        -1.08555290010790    4.03098547252173    1.53593009344388
H        -2.02149731018166    4.44153562025682    1.18655967894255
C        -0.85908744939507    2.66753529948715    1.47549944991322
H        -1.61733246032379    2.00785010258487    1.08000311808306
C         0.34168148799417    2.14421400148917    1.92239904053195
H         0.51318473159036    1.07865230951006    1.88505950666436
C         2.97336036727963    2.99677362623430    4.71306952095845
C         4.20402932490619    3.15039753658168    5.34908471016563
H         5.11294482729693    2.95787958244500    4.79583315575202
C         4.25852896162941    3.52728787296710    6.67728549353406
H         5.21594206614012    3.64573796291706    7.16371024733951
C         3.08693226498522    3.73465018487218    7.38873859563556
H         3.13063505251769    4.02127443320234    8.42993779366591
C         1.86145452072770    3.56619241338752    6.76653702651174
H         0.94564433192642    3.71940034813948    7.32039932283528
C         1.80075466572830    3.19375504439743    5.43504427831466
H         0.84143929957171    3.04448400268019    4.95801207028613
P         2.93711166925228   -2.32920540206359    3.01767414918437
C         6.66942417308750   -1.47291120071632    2.87618194842727
H         7.68880241337453   -1.35441298813521    2.52120458901335
H         6.69449293041379   -1.47557136531259    3.96169517962967
H         6.31499464038581   -2.43986372907870    2.53635632660022
C         3.99172674500843   -3.48233944967013    2.07167749645748
C         4.26432521276056   -3.10717931563724    0.75874660065418
H         3.89966223733085   -2.15448577567014    0.39659668763508
C         5.01472604544078   -3.92825634380022   -0.06000708876820
H         5.23141586957658   -3.62193243200086   -1.07166444092574
C         5.49760475461449   -5.13326679741734    0.42591135524931
H         6.09201517553613   -5.77428765433030   -0.20812179354756
C         5.22206336287593   -5.51447921006167    1.72810018489591
H         5.59724624746372   -6.45380979022711    2.10861738031595
C         4.46805964498007   -4.69642622970029    2.55210747287698
H         4.26610714165988   -5.00333164715161    3.56947238311952
C         1.32528305987891   -2.97814064651015    2.43367009790564
C         1.09124376754559   -4.35083202341259    2.49220124440056
H         1.85132696700700   -5.00966516455149    2.88887887428119
C        -0.10811845885992   -4.87108907762763    2.04727147151996
H        -0.28214279214513   -5.93630146476858    2.09729180034442
C        -1.08558332015070   -4.03098099664089    1.53601642598060
H        -2.02159789488631   -4.44148283732941    1.18677610968850
C        -0.85913839851055   -2.66751641619488    1.47572945305063
H        -1.61747316755466   -2.00777442261926    1.08047573013975
C         0.34172479657686   -2.14428163991806    1.92246066967488
H         0.51336407414499   -1.07874564687641    1.88509967701977
C         2.97325832331281   -2.99672859618390    4.71311101887448
C         4.20390568667319   -3.15041555885923    5.34914524430910
H         5.11285375305076   -2.95790044093459    4.79594372188264
C         4.25836950914956   -3.52738876155728    6.67732579079750
H         5.21577199169992   -3.64587770658559    7.16376491419925
C         3.08675632498370   -3.73476337198781    7.38874716953511
H         3.13043640544488   -4.02142828879573    8.42993567819636
C         1.86129714643773   -3.56626594978339    6.76651825861678
H         0.94547341026266   -3.71949726035209    7.32035051544950
C         1.80063442893323   -3.19376944567294    5.43503786974373
H         0.84132723135159   -3.04449043507623    4.95798892663483

