92
CSD_code = FIXXIW | q = 0 | S = 0 | Stoichiometry = C32H53N5SiZn | MND = 4
Zn        3.73625482363541    1.31805777731420    1.35705302794518
N         1.90720977721368    2.50540229844398    1.55752474624117
N         1.31055922342581    2.33831859047789    2.74640793654026
N         4.36615400246434    2.52192221607729    3.09409195632335
N         3.32801010973059    2.88823206043799    3.85951544183625
N         3.03679731940789   -0.24207545097483    2.45137772843279
Si        2.71343006412887    0.17557578468429    4.04662767939268
C         0.96707385645498    2.85084176858515    0.68091805442512
C        -0.26396707362007    2.87259731225393    1.32884689316364
C        -0.02509031618085    2.53968617352288    2.65537158437389
C         1.24215700775675    3.15766713834076   -0.76486050686286
C         2.57034508387189    3.90632045587241   -0.89851782686245
C         1.29513719822020    1.83455547902789   -1.53758332965433
C         0.12155644155565    4.03126319225655   -1.34138831192616
C        -1.16068349597283    2.36814109001540    3.64261628227831
C        -2.04025234596466    3.62950704174332    3.59019605070656
C        -1.97799402301800    1.15890226799920    3.15490030722752
C        -0.79897513908562    2.12497107844056    5.10855316121143
C         5.39106262184569    3.30435321912274    3.40823904675201
C         4.99027938298981    4.20742022764442    4.39594713129930
C         3.66482011439499    3.92491038809733    4.66612164038305
C         6.74848722599183    3.20219666785798    2.77029458648566
C         7.13306055877609    1.73067009847860    2.59562451202908
C         6.69639837028145    3.91252501846220    1.41217857259205
C         7.80240068279532    3.88503603697084    3.65006109794230
C         2.76760216441411    4.67138260031014    5.62079006410151
C         1.52116666444319    5.17859459638953    4.88177541091303
C         2.40514987620814    3.80925782079393    6.83995762133716
C         3.51151194034948    5.90485312334615    6.15428198323103
C         2.15358150611307    2.05959091134246    3.88441054312645
C         1.29097432497525   -0.83603129297296    4.82476710551277
C         4.07552280205994    0.28606719251890    5.39795723355832
C         3.21297706755644   -1.53212964745364    1.99988502064230
C         2.95111858461957   -1.83175826576678    0.65858905446700
C         3.12069889640501   -3.10814671004556    0.16512629576952
C         3.55221030305563   -4.13157842649235    0.99375202285120
C         3.81161322985671   -3.85362592549848    2.32551756812750
C         3.64523114164695   -2.57698551754587    2.82250640674210
C         4.88664699199542    0.94753250529996   -0.26646142481651
H        -1.21292612379174    3.09729305980396    0.89039259911657
H         2.77576951968775    4.11891570461220   -1.94515207569137
H         2.52838797046789    4.84800482624820   -0.35525001075093
H         3.38551708535588    3.31154378939018   -0.49632259570407
H         1.52480135022017    2.01813274105149   -2.58471780316381
H         2.05979594399368    1.18773580312757   -1.11625183991662
H         0.33766382661559    1.32138806171125   -1.47563158792208
H         0.36968060869367    4.31761273661387   -2.36082224433103
H        -0.00502760755681    4.93635222378275   -0.75127017082297
H        -0.82297798572230    3.49402297460183   -1.36422075974944
H        -2.86412808855169    3.53246921426430    4.29358717909765
H        -1.46346175260878    4.51267077571687    3.85700128861789
H        -2.45866764023797    3.78297138779164    2.60070159280698
H        -2.83926958989234    1.00319069359677    3.80077863556530
H        -2.33228800472033    1.31169656246525    2.13956130511864
H        -1.36693530950140    0.25940916141312    3.16848374988570
H        -1.71960412917204    1.95116477655088    5.66408767649588
H        -0.31732806455562    2.99174577638517    5.55384353715508
H        -0.17503796916005    1.24650983019487    5.22545956559300
H         5.59315182393449    4.96219435912425    4.85200580150173
H         8.08490749239868    1.65241659643189    2.07539762269654
H         7.23194839537175    1.25112896719310    3.56721651183235
H         6.37711811228173    1.19795846092523    2.02627252007528
H         7.65340679662867    3.82357515181297    0.90357699531921
H         6.47171557794396    4.96886570278387    1.54678215574826
H         5.92233712123971    3.47411611529806    0.78932479787414
H         8.78963071752592    3.73032395118942    3.22088856745472
H         7.62796456696514    4.95616943774225    3.71496221032714
H         7.79643674089047    3.46733537684843    4.65441833586371
H         0.85099927207035    5.67530384755487    5.58118086241670
H         1.81510231105715    5.89916981196776    4.12052309594725
H         0.97723875665607    4.38239403135263    4.38672693802023
H         1.82518198902399    4.40022911297329    7.54617671371756
H         3.31435397358864    3.47822839606778    7.33791246264764
H         1.82467632680549    2.92851545421655    6.58467102615336
H         2.84760073189857    6.47832458201205    6.79766330864854
H         4.38047006610784    5.61413992962905    6.73857735050469
H         3.83324477539052    6.54745642909038    5.33878354700307
H         1.59602641224167    2.31928976161470    4.77229124410576
H         1.05287961270540   -0.53808356330629    5.84158672726574
H         1.60058849772899   -1.87426566469537    4.85955991247885
H         0.38447867835091   -0.80359175158577    4.22982023071979
H         3.77063979719542    0.90076825315436    6.24179959746859
H         4.31370349571279   -0.69918151883216    5.78704408947088
H         4.99496718720505    0.70567376046548    5.00097589623253
H         2.60316992411297   -1.03889008141803    0.01122136506260
H         2.91200388382640   -3.31051285751360   -0.87663468515623
H         3.68609543387883   -5.13125308407684    0.60703735325428
H         4.15124508045271   -4.64184973971973    2.98423914215865
H         3.86568870993754   -2.36339649593013    3.85825401529316
H         5.39102224856277   -0.00564381098024   -0.12625172422277
H         5.66331417563248    1.68044323842802   -0.46580735197732
H         4.31929031032639    0.85139684544641   -1.18802704514169

