71
CSD_code = FIXYOB | q = 0 | S = 0 | Stoichiometry = C27H40NNiOP | MND = 4
C        10.77949090421116   -3.58643956573747    9.59465678639228
C        10.58063693511966   -2.48368305652867   10.40656958359676
C         9.33650138983539   -2.00958319288142   10.85919383142620
C         7.00405203219781   -1.97064976269580   11.12435388346520
C         6.33738003090295   -0.97299449327001   10.39239549219689
C         5.14208936253041   -0.47123389622311   10.88053324156598
C         4.62341191855378   -0.90979205129163   12.08544184269036
C         5.30753789400127   -1.85386398750795   12.82418972899062
C         6.49875273789652   -2.39642870734272   12.36293827046473
C        12.20807816284674   -3.92865224357629    9.20890259467778
C         9.42782867757441   -0.75505903696001   11.69973933383458
C         6.92136828125884   -0.48412479542026    9.08511872652878
C         6.47207805943443   -1.41204397045324    7.95443558490035
C         6.56593087536442    0.96765647974065    8.76665912801861
C         7.24734842711667   -3.40204558436861   13.21013086596666
C         6.36640226429478   -4.58373441792897   13.62290828053570
C         7.81648591802790   -2.72053618986308   14.45799843498747
C         6.13841969252372   -4.65270453917164    9.72850752738268
C         6.45325290008801   -6.07620762240036    9.90937538156392
C         5.77147940063596   -7.09746831512446    9.23801780842281
C         6.14498833545848   -8.41908753448177    9.38761392388247
C         7.21771835269632   -8.75684394109405   10.19839848708652
C         7.90535950902556   -7.76131785732708   10.87534750788672
C         7.52524242596322   -6.43983691185415   10.74396622070879
C         9.03093137271350   -3.94442218072740    6.11849778365809
C         8.78933544789567   -6.58264820538258    7.09824157011285
C         6.51664015767150   -5.20106514559898    6.15058284885377
H        11.45350090062857   -1.92761983721819   10.71385394700610
H         4.60621634278587    0.28013503486915   10.32251908689800
H         3.69196132501483   -0.50437439259502   12.45290012368502
H         4.91032514211212   -2.17143966982299   13.77656803706659
H         8.01167379091825   -0.55205134400834    9.15421662875972
H         8.08618291378485   -3.78701763147404   12.62111792851914
H         4.92618072370997   -6.84482940541092    8.61211368134819
H         5.59872360452123   -9.19429704881470    8.86797039251302
H         7.51155644956084   -9.79075325376022   10.30629759387729
H         8.73836365718374   -8.02233003682161   11.51287963492209
H         8.04665969497074   -5.66682775905764   11.30589307251926
H        12.63410171111631   -3.12523337381245    8.61030370771794
H         9.81814139861985    0.05824603621454   11.08867000962671
H         6.86549020509700   -1.06758318772905    6.99992025732634
H         7.16861578507650    1.31714278442748    7.93044943629118
H         6.96512687493176   -5.32577160977546   14.14782373418091
H         7.01434563558062   -2.31964583779778   15.07391482090961
H         5.90486351913577   -4.14572584641973   10.66807885621037
H        10.01090896830089   -3.82226410285898    6.57179657283118
H         8.94175371780231   -6.84593773011961    6.05214466728675
H         6.83289777997887   -5.55980254160903    5.17265225333297
H        12.22544110888264   -4.85053542896642    8.63187705733837
H         8.46161660340192   -0.45732795804600   12.09738467147884
H         6.84779478088257   -2.42541019059158    8.15218269746330
H         5.52001666843191    1.06661049837146    8.48637169574382
H         5.56894856800117   -4.26251527125882   14.28853789816042
H         8.38078228705383   -3.43675808972141   15.05203342627304
H         5.33310507585154   -4.48782353056352    9.00866032552524
H         8.58463217424966   -2.96173023147761    5.98209704041353
H         8.16907178349170   -7.33497915965150    7.58144205841958
H         5.97959601649069   -4.26220103950974    6.03565557347784
H        12.82013148248837   -4.05131577822288   10.09946040260352
H        10.12302720148763   -0.91272989298682   12.52245859074720
H         5.38623505852224   -1.44576427691269    7.89778370468621
H         6.76136543036853    1.60982447235738    9.62283638778073
H         5.91795756862469   -5.06104771111934   12.75518502364321
H         8.47810078788743   -1.90264371367555   14.18524004951935
H         9.13137358949596   -4.43731773040206    5.15200623243746
H         9.74550913060050   -6.53749589610140    7.61328003869856
H         5.85140094763713   -5.93177681757538    6.60169181007904
N         8.17703447833217   -2.56026720099986   10.59002170951655
Ni        7.97172432288880   -4.20104060554113    9.33459301419520
O         9.87146626859131   -4.33209096802704    9.12939099287191
P         7.97723705988901   -4.94647200045699    7.23891048589616

