47
CSD_code = FIYBOF | q = 0 | S = 0 | Stoichiometry = C18H21BCl2N2O2Pt | MND = 4
Pt        1.74873911188399    6.38225111214095    2.31928709936968
Cl        0.84454672033736    6.62280858338272    4.34252484975543
Cl        2.13691151661838    4.23882473582837    2.82609946491578
N         1.30147274338566    8.24373397025864    1.71651960579468
C         0.71989939268045    9.21549441556341    2.41642616919937
H         0.52525573048739    8.99316744349246    3.45777260355173
C         0.37728200776541   10.42849851679928    1.85143996423383
H        -0.09328151240249   11.18697194500132    2.45515381027580
C         0.64478211985722   10.65279102629600    0.50221310619277
H         0.38375586156125   11.59167538190947    0.03937927571200
C         1.24868229011915    9.65277852888739   -0.22931384825221
H         1.47477916432421    9.77828390873635   -1.27635601319203
C         1.57270649927782    8.44685368439172    0.40121555594956
C         2.23542190188321    7.35423301902461   -0.23750739421382
H         2.55630232534595    7.42669127220958   -1.27190232347899
N         2.50135997885479    6.30719152852554    0.48775387633556
C         3.19498040915178    5.22587866204135   -0.05783601520471
C         4.25751040759872    4.67577462524785    0.65612686260761
H         4.54897834231696    5.11106768775014    1.60069852894109
C         4.95947912986913    3.58370213629602    0.15924975963479
C         4.57020791283424    3.04563923887383   -1.06764211612920
H         5.09988931897744    2.18585999429082   -1.44747231786525
C         3.51972902298200    3.59216207695479   -1.78469308707225
H         3.22392523389388    3.15964517784568   -2.72902151195691
C         2.83239307855366    4.68476452537349   -1.29118824676607
H         1.98548262440368    5.09079746220832   -1.82616117271946
B         6.12721813514212    2.95640254267447    0.99749667867102
O         6.59393354816415    3.49907793434606    2.15199192144270
C         7.71218980006687    2.73659569503564    2.60778925283208
C         7.63842963836340    1.43126189749489    1.72972170136221
O         6.77810621098475    1.80993671811443    0.65206925026656
C         7.58225952547386    2.50807730696934    4.11187897102075
H         7.65624965234019    3.46613295756982    4.62001751222560
H         8.37829844899465    1.85894010792992    4.46595085189032
H         6.61940368204591    2.07357112334703    4.35907934470347
C         8.96398583413194    3.57944365603395    2.33406745872858
H         9.05471739045618    3.79108154808261    1.27161922227267
H         9.85940966534404    3.07695828941497    2.68656423100969
H         8.86120048816901    4.52710196363213    2.85747931200361
C         6.95513323287193    0.26153676840186    2.44738324496792
H         5.97977225917835    0.56527021057304    2.81815821399457
H         7.56357404800582   -0.10527061350349    3.26816661562834
H         6.80557148456705   -0.54280508949320    1.73067459300329
C         8.97626267743856    0.95896126516779    1.16454869698050
H         8.81261345770882    0.05542900885975    0.58254774533106
H         9.66696868740061    0.73564721860624    1.97288591604614
H         9.41371080174585    1.70580883120886    0.50984278031422

