90
CSD_code = FIYBIB | q = 0 | S = 0 | Stoichiometry = C34H53NOTi | MND = 12
Ti        6.17204963934933    7.32198038399201    9.69986843685683
O         7.05687971848788    5.90991209083636    9.31542209473694
N        10.87733850641612    6.57218942050013    7.92167021323577
C         6.79675271119872    7.02082066539261   11.87558229778353
C         5.63741694599136    6.21632262671577   11.69450124159762
C         4.51941528269638    7.07759903653082   11.55524221740957
C         4.98245417542039    8.41027295403768   11.63542803063237
C         6.38116233806653    8.38749814456462   11.83863241737544
C         8.14225862612881    6.49536092409164   12.28887049992893
H         8.48159264411205    5.71747436915797   11.60190014802460
H         8.08486002969752    6.06277227425654   13.29102281019473
H         8.88533606011659    7.29075946333238   12.30925126016543
C         5.59536033925112    4.72203689860801   11.83121908696680
H         4.82162607357301    4.28293304622310   11.20058199377780
H         5.38169199128504    4.44328588121470   12.86706024823031
H         6.55419628420072    4.28810348380466   11.55319515749339
C         3.08315175964973    6.64051058516060   11.60947759359330
H         2.43909983998406    7.24018599264712   10.96772270139252
H         2.71264999751979    6.73949360423131   12.63338456919856
H         2.97608951087142    5.59604811179021   11.32235660672746
C         4.14606801832884    9.65661449455215   11.69438142833808
H         4.44214528191921   10.37551311565455   10.92677070714723
H         4.26777071989334   10.14146528758534   12.66559218661902
H         3.09005501132542    9.42874962738002   11.56658727372885
C         7.16998346509874    9.57895151113250   12.30199958904519
H         8.24237552130803    9.41652073655988   12.22163422463455
H         6.93968631606119    9.77423357708184   13.35327302531352
H         6.91300113574928   10.47272900322816   11.73537676734231
C         5.39595025351226    6.49930417349546    7.59948267697666
C         5.83678645687681    7.78345933135573    7.23645255668923
H         6.57748849226842    8.01944244706075    6.48586093425145
C         5.05932166871971    8.74122554557862    7.92033266943680
H         5.09641373564249    9.81089432003806    7.75876389402093
C         4.13214236562871    8.05906147455735    8.71407019669594
H         3.29543035492667    8.51310673728770    9.22645799523014
C         4.35410598309231    6.67106683568606    8.54933050803159
H         3.72300574914029    5.89413381321083    8.95847902083854
C         6.05365560138520    5.18709538359400    7.20173690716712
C         5.01381705249124    4.03899610288583    7.33684610074403
H         4.74203476281527    3.92346513029175    8.39258603991634
C         5.47177064399947    2.67965432181078    6.79107393394825
H         6.30840061701225    2.26632333548633    7.34424383600937
H         4.64108265625775    1.97510337760117    6.89430194828554
C         5.85141542161144    2.80289412325984    5.31937362346229
H         6.24049896942519    1.84286473226367    4.95934388104466
C         6.92978833289838    3.87335437833128    5.18205097813169
H         7.21211924458445    3.97993476242452    4.13109100275962
H         7.81751654517974    3.55655266559482    5.73064927208208
C         6.41475695350705    5.22163596364310    5.69463632321489
H         7.17118963142846    5.98534332890571    5.50582436324731
C         3.75339536485536    4.39336277829440    6.52622953383192
H         3.00903203181644    3.60432724695873    6.66533910035356
H         3.31213705455003    5.33039948702997    6.86045147709876
C         4.62080809668669    3.19254790430729    4.50787370049117
H         4.87871174537297    3.28871530534904    3.45048395080356
H         3.85407092696768    2.41903033504164    4.59648721070295
C         5.17102724706188    5.59028702610313    4.87529989984035
H         4.78357558925639    6.55767988207948    5.19666975802409
H         5.44892897385822    5.67153126115935    3.82115812391657
C         4.09706927574830    4.52083638681936    5.04375555095648
H         3.19829737587048    4.81273238814286    4.48807581248447
C         7.32747937098311    5.11591559398171    8.20981983471500
C         8.60348336848095    5.67647166115466    7.52342305573934
H         8.83853808691021    5.07151607740823    6.65147445453566
H         8.40465857336913    6.70173096626003    7.21127184348961
C         9.81758453309024    5.72811476985427    8.45630273029919
H         9.48213327786421    6.17217791050717    9.39640498717474
H        10.19703940988451    4.70949672501784    8.65530297849284
C         7.64869005992852    3.71334983870560    8.76212868230355
H         8.36218271951942    3.83446609629465    9.57545169783524
H         8.09546255357979    3.07152836409903    8.00931755324789
H         6.75940304231963    3.25025075773678    9.17823887900800
C        11.52530538605044    6.00421423160657    6.74700921749522
H        10.79431386248576    5.41498340163580    6.19374844670969
H        12.35008068252231    5.32601238915357    7.02862589949168
C        12.04712821208474    7.09900393211868    5.82105286255345
H        12.46315599691785    6.65705908778081    4.91881058014073
H        12.82112922553837    7.69112153337235    6.30148099827457
H        11.23150812600524    7.76193885985319    5.54718389297250
C        11.85622503313153    6.91695783286126    8.94264338168881
H        12.75412921051126    7.27416132792045    8.43506865280902
H        12.14294427486046    6.02956647925955    9.53721004845997
C        11.36818113496274    8.02162402116134    9.87163371920483
H        11.00607251857317    8.85880974910067    9.28200377489574
H        12.18675930394400    8.35936488120400   10.50348981624930
H        10.56314801103144    7.67163880877036   10.51164947047554
C         7.69391225064915    8.71250464461442    9.33753429338548
H         8.50716230688090    8.62129954625109   10.05921610095091
H         7.29421333405399    9.73166102821107    9.41412332601566
H         8.14986301571765    8.62095988819535    8.34856121320263

