82
CSD_code = FIYFOJ | q = 1 | S = 0 | Stoichiometry = C36H38BrN6Ni(1+) | MND = 5
Ni        6.55477133403645   10.52334964145856    1.79531539452351
Br        6.00870913379444   12.74434522640104    1.66204967030016
N         6.57841922352052   10.29121590744126   -0.02292735218559
N         7.54743538719724    9.41843512041529   -1.81594032592592
H         8.24621266598498    8.99833184358334   -2.40698196404232
N         8.58446453542147    9.81740371081106    1.59603474806504
N         6.59106196495450   10.51524200538301    3.62960087985681
N         6.08334927871436    9.50299750839037    5.53548294438949
H         5.63812863536622    8.88035151913982    6.18979682207036
N         5.04371601627998    9.01211871151392    2.13479191311606
C         7.68559569961642    9.73334204652456   -0.50376504393303
C         5.68380246577592   10.36594292270722   -1.05164748395714
C         4.40057018557604   10.90571126339175   -1.11714613161400
H         3.96802959322479   11.40015214831543   -0.26370778089106
C         3.73734757387596   10.80509727528435   -2.31755285017882
H         2.74225010556246   11.21028301449467   -2.40766170994203
C         4.32205134411275   10.20022281451791   -3.43662525924614
H         3.75853050036356   10.14437884640451   -4.35470670755770
C         5.60474138810335    9.69604802076924   -3.40321235526990
H         6.06427474425515    9.25442447433453   -4.27309950691649
C         6.28429505943051    9.79270547719010   -2.19770752665184
C         8.83219823211999    9.56749751310531    0.35919922787369
C        10.14684337080581    9.14437983802562   -0.20453428484631
H        10.49633368630244    9.86983126931609   -0.93863956371917
H        10.04590920141586    8.18072994525634   -0.70392626148386
H        10.88723589725067    9.05521719772343    0.58694487484594
C         9.56106437761922    9.87428114231238    2.60096482080092
C        10.40785166822245   10.98873972253112    2.67987292581052
C        11.26228545242378   11.09009320113933    3.76426274702214
H        11.91202913178073   11.94968085227125    3.83478782126901
C        11.29730347786376   10.12936359647234    4.76645962787326
C        10.45048842712431    9.03536574007608    4.66292630125942
H        10.46784754763987    8.27333015267017    5.42832118103503
C         9.57890143464892    8.89263911135181    3.59646994687357
C        10.34792558440810   12.07447461438248    1.64793833957127
H        10.75690908023263   12.99766625746491    2.04896902040459
H         9.32070444188492   12.25822234446556    1.32966860281784
H        10.93152663214209   11.80835933210072    0.76649623588395
C         8.69957140788242    7.68350977431250    3.47821905222059
H         7.73926172165314    7.94207071742208    3.03192967000078
H         8.53263994912939    7.23310377377493    4.45365996983206
H         9.17012997949963    6.93526064983630    2.83901751305757
C        12.20698186672724   10.29424510941586    5.94158921087792
H        13.18501028340021   10.65001536316984    5.62580115686745
H        12.32855822817464    9.35704602560980    6.47779827734310
H        11.79112794200026   11.03061821837478    6.62943815483822
C         5.85020080841611    9.57055427997217    4.20088505356133
C         7.32335783172841   11.10754608429482    4.61809104174196
C         8.20959758950373   12.18266290326431    4.58700665971939
H         8.38929503554474   12.72040933943390    3.67129541119941
C         8.80663802891306   12.53924044679274    5.77342715559030
H         9.49612779736801   13.36823314729778    5.79002839063387
C         8.53543690872761   11.86362751236810    6.96928054788372
H         9.03064171161717   12.18070602052063    7.87381075875297
C         7.63443343323461   10.82177223837783    7.02754304279256
H         7.40683823943348   10.31986861389465    7.95443194791983
C         7.02232074592715   10.45606265605790    5.83768493422440
C         4.91902245671602    8.81098661170942    3.39859500385079
C         3.93046513702359    7.90240664326132    4.04872874198943
H         3.32164986189391    7.40585740659995    3.29676032743278
H         3.28013799985861    8.46415374089721    4.71859595909755
H         4.45029464145342    7.14675665153789    4.63776057355710
C         4.15509732024489    8.52040736429438    1.16744926579579
C         2.90192018320916    9.12665076479809    1.01086958779480
C         2.10229897295399    8.72358273292110   -0.04667853148850
H         1.13900674462482    9.19445002075482   -0.17476371509886
C         2.51028045651877    7.75101076285132   -0.94734440592951
C         3.75618481058506    7.16354624152310   -0.76727257463961
H         4.08701308288825    6.39992518476801   -1.45609580576729
C         4.58768205538590    7.53403985128708    0.27423865926479
C         2.46140995208704   10.23036424731261    1.92470561203188
H         1.68101022567603   10.82074668382343    1.45272334844274
H         3.29381471292352   10.89017075520827    2.17360149360923
H         2.05827067621087    9.83038641954864    2.85514921469983
C         1.63566351540040    7.33477363611377   -2.08635247820408
H         0.82925429949447    8.04630073993414   -2.23952501938848
H         1.19531811085253    6.35873528733246   -1.88311996751589
H         2.21471713141152    7.25252672845602   -3.00385809937115
C         5.91377443988394    6.86377707720233    0.47831827948765
H         6.65526656090236    7.57206746603477    0.84864450845954
H         6.26901755349594    6.42445137805012   -0.45069057661089
H         5.82364511037064    6.06450140046697    1.21525071214458

