61
CSD_code = FIYGOM | q = 0 | S = 0 | Stoichiometry = C24H26FeN4O6 | MND = 6
C         6.17595906067734    7.13337648898432   22.00395331103531
H         5.63820403836014    6.25324253078010   22.31926470909567
C         7.10002319844028    7.73797252098317   22.83093437001082
H         7.30013458442113    7.32866730024390   23.80831979665281
C         7.75732721205997    8.87683593958997   22.38434635360561
H         8.48683661279237    9.37740289809246   23.00135317223276
C         7.44600132164875    9.35406052870123   21.12068403649728
H         7.92656646268686   10.23782749620582   20.72959516282250
C         6.50176086892216    8.69092409451223   20.35417675363249
C         6.09978292274078    9.16238300348590   18.99065411893393
H         5.43722053260899   10.02950312398290   19.11552184948016
H         6.97531788380532    9.49107866838728   18.41412160410296
C         5.09278304879943    8.24854797817271   17.07103842350958
H         5.50515416123802    9.10463063249344   16.53808721243641
C         4.28888865615444    7.37691408271628   16.29539045322321
C         3.52635017796346    6.33931145517355   16.89243845345515
C         2.61655640021632    5.48856648993521   16.04336246306096
H         3.18514082618266    4.97854078963999   15.27027176226370
H         1.88106358393444    6.10970074885705   15.53954449331389
H         2.11676274238140    4.76445651640262   16.68273452673128
C         4.22766012335215    7.62537751259647   14.86510181535381
C         5.02459529571881    8.93350118959437   13.08429614448532
H         5.32641318434548    8.06047807368796   12.50075921358770
H         5.72182057009468    9.75416180264947   12.93085981229092
H         4.01751500359694    9.22439425761987   12.77655598793732
C         7.09766878968871    5.60649422710223   18.42406924994407
H         7.25476013496515    6.57368598905437   17.97341331111112
C         8.00524311198027    4.58252948628118   18.24748513297177
H         8.89269898161799    4.74284551901217   17.65624015582063
C         7.75180864497735    3.35120802457047   18.83747263083049
H         8.43751008167687    2.52654695720087   18.72299199863996
C         6.58789326554296    3.21184105633613   19.57740794816161
H         6.34382432206830    2.27392911311362   20.05247440530905
C         5.72547811903956    4.28863127378132   19.70246756892969
C         4.44061404921499    4.20344535879035   20.46734362841530
H         3.71731207788484    3.65235857102588   19.85126037339362
H         4.57658725495092    3.64454388209175   21.40335102242912
C         2.93533222311685    5.69219180800081   21.49321778545940
H         2.56868919886674    4.82584254914573   22.04274769400604
C         2.24602818539867    6.90574190672220   21.73782104771813
C         2.47826455064937    8.06490264614965   20.95231508169549
C         1.66270332805031    9.31065495218921   21.18762089147662
H         1.79672095765642    9.66527388725724   22.20618226188604
H         0.60453091198814    9.09886603336982   21.06142702839903
H         1.97687851655282   10.07380612501438   20.47922528608785
C         1.24348309842255    6.90087350236951   22.78952940268209
C         0.20840589862177    5.64409566540163   24.48222671726611
H         0.40655195509912    6.40148293142733   25.24443332660989
H         0.27972592085435    4.64608504881982   24.90885916760673
H        -0.79090165261973    5.81568407570132   24.07538129505753
N         5.87248987847584    7.58549950896842   20.78435751309755
N         5.37136848729591    8.10885108164055   18.32374907353402
N         5.97554365130652    5.48082278644816   19.13749502001158
N         3.93944686773350    5.53820733444233   20.69666965119723
O         3.53883685467884    6.06067895048855   18.11699724060243
O         3.55821130056354    7.03601530718373   14.04175213653476
O         5.05682418610886    8.64141868369507   14.46847293818024
O         3.33387173288322    8.14478854517058   20.03640721852151
O         0.51381676223401    7.81391705599400   23.11731313342445
O         1.18052124144471    5.70551324721378   23.45596209447140
Fe        4.68811863786742    6.81607078533628   19.52169356876543

