34
CSD_code = FIYHOL | q = -1 | S = 0 | Stoichiometry = C12H14N2O5V(1-) | MND = 5
V         3.45060027204623   11.40783321300100   11.97634294957414
O         2.00771812872877   11.70455294542831   11.48937059387334
O         3.80772898564816    9.93033510325029   11.73899810804253
O         3.43032420077849   11.38482920475256   13.78088039846540
O         4.54445374935229   11.95554499457047   10.53598245214875
O         1.07800387173463   10.88831235499139    9.07381902311497
H         1.24555091508272   11.12401206924010   10.01794859564939
N         3.92122085060871   13.48672409817669   12.35046423627621
N         4.29052073777103   14.10763474015576   11.19898174387360
C         3.00181802988261   12.19163469666051   14.68603992932378
C         2.52008160085053   11.67394781523626   15.91216508340241
H         2.50504225680985   10.59828958811656   16.02247171952212
C         2.08325227631390   12.49752931362127   16.92046010294751
H         1.72017011886325   12.06829847105431   17.84543614349290
C         2.10045299079482   13.88247433243431   16.76409662501942
H         1.75172726085094   14.52428054693331   17.56126175933113
C         2.56207456728796   14.42173322413329   15.58561204309469
H         2.57873397479195   15.49631522705302   15.45048121862873
C         3.01815783632925   13.61202479737519   14.54031348475904
C         3.48608040930339   14.19969104813798   13.32297101322444
H         3.43946606842411   15.28993646899788   13.21631022230035
C         4.54339864033426   13.19832781398323   10.29261690514089
C         4.82484143169802   13.67204669599528    8.87894698018229
H         4.44204466538444   14.68873698506394    8.77845403477585
H         5.90704879428946   13.69280681271055    8.71838726594841
C         4.16180487012131   12.72215069242382    7.87693147162343
H         4.29504331020667   13.11862090869865    6.86664761667428
H         4.67646913269130   11.76047221491474    7.93161958237907
C         2.67237141124810   12.50654266314427    8.18958754278508
H         2.04338396849806   12.90247642719390    7.38831518953712
H         2.40914199748237   13.04071893324543    9.10698434731587
C         2.31883311872817   11.02759750598714    8.43171530102528
H         2.24372313082512   10.49437940224934    7.47527518210838
H         3.10711642623627   10.56488869106863    9.04571113444338

