72
CSD_code = FIYJED | q = 1 | S = 0 | Stoichiometry = C24H40BrN4NiO2(1+) | MND = 5
C        11.81515072232381    3.13542985653241   14.63996084274445
H        11.56651234733850    2.67318081186457   13.67812385480781
H        11.63275245141734    4.20872724528596   14.55940791079940
C        10.88584453305093    2.56359563673057   15.71238778494851
H         9.85738166882258    2.85316736028796   15.46563003541816
H        10.93568962798262    1.47595867096771   15.70400661758868
C        10.86191220172562    2.23204160590284   18.19561319279135
C        11.29988913361201    2.94935386296030   19.49033788043766
H        10.81156480429161    3.92783632730945   19.50614461350355
H        10.89076349424425    2.38710551299912   20.33012417347362
C        12.79534544040326    3.16853823741960   19.80096929413171
H        12.79042681893855    3.78739395772938   20.71321164892212
C        13.28909652685677    5.37796513816397   18.86672712170099
H        13.58237669826971    5.73135862345446   19.86332436657272
H        12.22595294700415    5.59715996107010   18.73167340576243
C        14.10601606849446    6.10879783382421   17.80568308988508
H        13.94058236301478    7.18865904684082   17.89781279436567
H        15.16441101995834    5.90198860559296   17.96742581382333
C        14.63367247485646    5.90119704429993   15.36667382058479
C        14.04790742527109    5.22934540038253   14.10858316900048
H        13.02178325439620    5.57722582074276   13.96852220376377
H        14.61656884039093    5.60768120056192   13.25861261702869
C        14.11623783617210    3.69592596911100   14.00193885412748
H        15.13723551928792    3.38483201312092   14.24102573422090
C        13.58388645867838    1.48830721555386   14.86638016920273
H        13.24663427793569    1.07514159051205   13.91099519372249
H        13.03907523865489    0.97293932817359   15.66414830062192
C        15.75760385548946    0.48258730136366   14.09620492010340
H        15.26581015329873    0.11847170214858   13.20640899538414
C        17.10853976760843    0.20526754305854   14.28468682573301
C        17.76081851229420    0.65380122601805   15.41206798713872
H        18.80646874657688    0.44609233452931   15.58183199637186
C        17.07402831943466    1.39461017389234   16.36973030787707
C        15.69139630915672    1.68453608185166   16.21035377303217
C        15.05284279872225    1.20181366066200   15.03676016439817
C        11.47196167205260    0.83469867434139   18.09496317429990
H        12.51315684924773    0.90472403279671   17.78128290183568
H        10.92495388138270    0.20939075925207   17.39369296804469
H        11.43441424142452    0.34189255983850   19.06034770757338
C         9.33035753810123    2.12710984291624   18.23192613231696
H         8.86868924501290    3.11104170642464   18.29222274586046
H         9.01807394958914    1.55559491057055   19.10087426883742
H         8.95008062243028    1.61964287030431   17.34958941759338
C        13.59755248242425    1.90988456876410   20.12658335345768
H        14.47542400193682    2.17858177007766   20.71058538127895
H        13.94078218520716    1.41551794419142   19.22305480453484
H        13.01070106581922    1.21287296253490   20.71531927234319
C        16.03758607414851    5.37283787412815   15.66610979466166
H        15.98284709527355    4.41193848127340   16.17429886458009
H        16.59321766593442    6.06693542402078   16.29039453765761
H        16.59528836346752    5.24973130790633   14.74235325968729
C        14.68861428615058    7.41311571107628   15.10965411426992
H        13.70340191512809    7.80706580511964   14.86535687677191
H        15.35396566711700    7.62661108347345   14.27849738840150
H        15.06791514081866    7.94182395177394   15.97980598265920
C        13.85888182547193    3.33913105536513   12.53007088574179
H        13.84143190508958    2.26821102549096   12.35964381701945
H        14.66855424152514    3.74188726022512   11.92809266084430
H        12.92921615271732    3.77210240120644   12.16902587843143
C        17.76507287537722    1.86962349087865   17.56662668220632
H        17.09318101485097    2.40829575966001   18.26463358516556
N        13.24702736896665    2.93461387687490   14.94844614846244
N        11.29431439517247    3.05603579874907   17.03892868740371
N        13.50150320682542    3.92797803568196   18.75140724882410
N        13.72084301083321    5.58954609184833   16.48705941746020
O        15.05428663042814    2.36659234304096   17.10414164311319
O        18.93534957685224    1.72523461179621   17.80645675073697
Ni       13.39855732316213    3.37807881282514   16.84834235933769
Br       18.04105422247775   -0.79542970092694   12.95740809067085
H        10.87461847181889    3.97793459100330   17.16578057064074
H        12.81995053342751    6.00973596332899   16.25169249769576
H        14.50119464636208    3.75788244124736   18.90074065558946

