58
CSD_code = FIYJUT | q = 0 | S = 0 | Stoichiometry = C30H18Cl2NO6Re | MND = 6
Re        6.08394088522170    7.57091151043055    4.42359904605708
Cl        2.44699433386140   10.58208511409536    5.56667166613049
Cl       -1.17023134659500    6.60586591758694    5.74531244510843
O         4.23037444031304    8.51424753233377    4.67696029455271
O         6.43984951362992    4.64121619354631    7.04393458794062
H         6.90582640479655    4.39348362405187    6.23190238704066
O         7.51001236104041   10.20146413169500    5.21020537159999
O         6.44793223923630    8.16057683179963    1.41793006626702
O         8.65934688797384    5.89488284269797    4.72302138732011
O         5.54813530230926    7.21304007043821    6.77313307055267
H         5.72100203681834    7.96647520857304    7.34463696623856
H         5.98807015355660    6.42928965508037    7.14635049149195
N         4.91255786990427    5.77017325283071    4.16798118929449
C         3.07796073103794    8.04493551516685    4.89556918997476
C         2.03184070754478    8.92141725417951    5.33799137761226
C         0.75991476038083    8.49270933237471    5.59339488407122
H         0.00805072152183    9.18612780972363    5.93527370618787
C         0.43996267290388    7.14102121328957    5.40667302524414
C         1.38231622177929    6.25386055835700    4.96917260223593
H         1.12978450638263    5.21236671164527    4.83442202062778
C         2.70454051973923    6.67322981422632    4.72000831987209
C         3.62587302582456    5.67681516167311    4.30911557473906
H         3.16498757811073    4.71280896601826    4.09227897197707
C         5.57852171366534    4.55870973554704    3.85519265713440
C         6.38215343330708    4.50332636020713    2.69572584433518
H         6.44645476430651    5.38474659893935    2.07450827103047
C         7.04624283206654    3.36073112455447    2.36285579623572
H         7.65081248221056    3.32518988018734    1.46938421400715
C         6.95918287117307    2.20818549811573    3.17208311682079
C         7.64378116570506    1.01811280600753    2.85353050172925
H         8.24902348381876    0.99559304925680    1.95915090257092
C         7.54500976451820   -0.08225237365927    3.65840360524515
H         8.07122303314190   -0.99117325471732    3.40805001717950
C         6.75831399840338   -0.03851145725909    4.81924003618000
H         6.68973980414735   -0.91415528068608    5.44736897879211
C         6.08240958210581    1.10038529010683    5.15723077401553
H         5.47644402210920    1.13046634906572    6.05118352811179
C         6.15950578569683    2.25097607048717    4.34305772762539
C         5.45728309549565    3.44208432724757    4.66637686247315
C         4.64688821979453    3.50116101808175    5.91199450355500
C         5.16863024692410    4.11511753867821    7.02725752417815
C         4.40503045092799    4.26241489206790    8.19981172100397
H         4.85930754274849    4.75328377897443    9.04673184030960
C         3.12484358975221    3.79668400954193    8.24524812801122
H         2.52982696203796    3.92438256076056    9.13698304964602
C         2.55430286744479    3.14096742962783    7.13409852511377
C         1.22911106336708    2.66007847547786    7.15368533547951
H         0.64174700323506    2.80301828358104    8.04893681241956
C         0.69573123054294    2.03119750402614    6.06370357083749
H        -0.32209096579207    1.67188542490794    6.08360551844491
C         1.47040078049708    1.84581574093823    4.90865887932332
H         1.04101300214160    1.33969368300852    4.05665932014929
C         2.75779115565041    2.30300425477274    4.85583605567026
H         3.35319285392577    2.15487987893140    3.96537697609789
C         3.33168349314237    2.97009312974851    5.96005389026933
C         7.00245410091260    9.23026043063517    4.88962611947447
C         6.35794480484231    7.92576051345165    2.53684695086859
C         7.73004723874241    6.55708250757121    4.55920380352725

