165
CSD_code = FIYMIM | q = 0 | S = 0 | Stoichiometry = C74H78O6Si6Zn | MND = 2
Zn        7.53855452616397   13.05224584102395   12.38795006476202
Si        5.91959737372458   12.23065366319696    9.80539757921851
O         5.80391575315822   11.06109589979007   10.98054188979846
C         7.53586280927917   13.05295983332695   10.30244989014933
C         4.29218777903414   13.22666350125141    9.85172352542205
H         3.44166063006397   12.55287741176558    9.92882663639084
H         4.14824715750806   13.81950705103216    8.95537132570733
H         4.25517484202629   13.89164832351137   10.70761004980466
C         4.71324632509803   10.28772859240479   11.22966306815441
C         4.62513718341314    8.97502067772509   10.69329387584897
C         3.70292281721534   10.77145189481800   12.02286174830749
H         3.78301006819411   11.77443644497044   12.40653583134810
C         3.49343887506830    8.17965040786796   11.01561579065825
C         5.95856077067234   11.43840531130408    8.06292598834644
H         6.84168114283790   10.83045740889264    7.90744625740799
H         5.95702312249549   12.20270250776877    7.29386301386656
H         5.08968752393402   10.80645953584234    7.89935292029552
C         5.62115694007852    8.43896105808849    9.85344822000183
H         6.47435887289570    9.05323507434737    9.62145088463847
C         5.50874347185995    7.17172054629115    9.35363035708471
H         6.27916235866435    6.77009290025586    8.71163061190771
C         2.58791406705338    9.98217795411677   12.33113826974210
H         1.81475462170208   10.39831569328189   12.96000114472809
C         3.41249503644988    6.87443338234591   10.48581321738074
H         2.55178597753221    6.27003986763498   10.73489806880557
C         2.48302034359289    8.71019472211099   11.84373943395475
H         1.62651391249146    8.09579193619244   12.07968631791368
C         4.39506644443582    6.38073870778873    9.67430497953030
H         4.32113016500633    5.37952565705384    9.27499925496337
Si        9.05639461764107   12.06451222165402    9.80608221643114
O        10.12743408902694   12.54907641075784   10.98088951716768
C         9.00743754432983   10.15702028816535    9.85155003862354
H        10.01621091091687    9.75737969121031    9.92865282406284
H         8.56597298943361    9.73547888937665    8.95537167112909
H         8.45029060145040    9.79245897363682   10.70756161986187
C        11.34239375538709   11.99099501380957   11.22984337482351
C        12.52325258286041   12.57091352080159   10.69332298429690
C        11.42857194241860   10.87411510667152   12.02297953950850
H        10.51989252835118   10.44196138901340   12.40656560908824
C        13.77789344015558   11.98852442157257   11.01565493969205
C         9.72256139567847   12.49365659406600    8.06315908559031
H         9.80766644207373   13.56240913170165    7.90781540802675
H         9.06164070904310   12.11037411599174    7.29374259407940
H        10.70433057392109   12.05719857392702    7.89968355870606
C        12.48943581011896   13.70148974736307    9.85345202409891
H        11.53083491764158   14.13321762532370    9.62148470515615
C        13.64308637828353   14.23778810082634    9.35363787627847
H        13.60567456393010   15.10581930063296    8.71165789080413
C        12.66959303766902   10.30304946016730   12.33117698268693
H        12.69577043432051    9.42540576054257   12.96004500357746
C        14.94870061731983   12.57110216520972   10.48591037868156
H        15.90247758005936   12.12790500598610   10.73498357699041
C        13.82362439780858   10.84819845814394   11.84378180407899
H        14.78396507939506   10.41366577528061   12.07976854773483
C        14.88494777597889   13.66888448011104    9.67439962506742
H        15.78898291634776   14.10544292993646    9.27504336592447
Si        7.63212668594454   14.86380810836981    9.80555385374696
O         6.67699935139700   15.54881011962473   10.98058517356360
C         9.30841549275944   15.77522373966591    9.85174680491671
H         9.15018449505491   16.84869875929705    9.92874167217249
H         9.89389130386461   15.60347036065057    8.95545576533546
H         9.90282556535285   15.47492266345980   10.70766832391917
C         6.55269032443003   16.88005762053909   11.22971043230755
C         5.45996798889622   17.61277291023932   10.69329521386321
C         7.47681339496839   17.51314385575331   12.02289122775925
H         8.30537077466411   16.94226887051015   12.40656476650108
C         5.33702633881435   18.99053776243434   11.01562986419025
C         6.92676238004278   15.22614894860922    8.06297325741814
H         5.95867165457439   14.76532969668092    7.90756158875085
H         7.58949633914248   14.84524085230208    7.29396078405970
H         6.81399206572582   16.29462964140667    7.89943261332913
C         4.49773273690706   17.01825646077580    9.85341505699486
H         4.60312739265788   15.97223665804618    9.62137181876580
C         3.45648347754338   17.74924401780740    9.35360739191844
H         2.72346876501313   17.28287707028413    8.71157394513870
C         7.35084615998223   18.87343901667557   12.33111654047045
H         8.09778587905501   19.33491716208929   12.96003549143735
C         4.24711604969379   19.71324522633348   10.48589275322851
H         4.15410284250314   20.76085867660954   10.73492308159421
C         6.30173157084011   19.60030256467575   11.84372519407960
H         6.19786493396663   20.64924194941032   12.07974807615417
C         3.32826900936182   19.10917864494876    9.67438140274855
H         2.49823233162672   19.67386307596911    9.27497383486625
Si        9.15213677546883   13.87532852483895   14.96971834409572
O         9.26797388737542   15.04516133651583   13.79488772795573
C         7.53576761375723   13.05289016050637   14.47344259526961
C        10.77964233709861   12.87926024746278   14.92439843991814
H        11.63017598952103   13.55300164896217   14.84719408883075
H        10.92403723609506   12.28614335279719   15.82055929909648
H        10.81664614306408   12.21447755738079   14.06839979477765
C        10.35879015889893   15.81831293275396   13.54596286623066
C        10.44705191853477   17.13089252128436   14.08258293796164
C        11.36913917177318   15.33450962608943   12.75283909508201
H        11.28906980433440   14.33148763273236   12.36926185166458
C        11.57876187903654   17.92624029466123   13.76030074263151
C         9.11371890522869   14.66681719768113   16.71266601752638
H         8.23070026103608   15.27486237437719   16.86801932400920
H         9.11517479357428   13.90286120195881   17.48212778686466
H         9.98252984690597   15.29887570517500   16.87623791041816
C         9.45104035060471   17.66689753651944   14.92246112981496
H         8.59784317405097   17.05259759638372   15.15441370081901
C         9.56343547442804   18.93412240791706   15.42231209773480
H         8.79301058558607   19.33572305976882   16.06432451103586
C        12.48423264917554   16.12372417722027   12.44469693395471
H        13.25740637473012   15.70756501903298   11.81586870986581
C        11.65966057750274   19.23146161164802   14.29008773435959
H        12.52037998116001   19.83585261041886   14.04103764334075
C        12.58916459075959   17.39569913593172   12.93214758546013
H        13.44567488799909   18.01010085255567   12.69620776027125
C        10.67707765193254   19.72513734939971   15.10160091256346
H        10.75104969405156   20.72631312767931   15.50100597328357
Si        6.01577569178239   14.04174607280416   14.97065425986685
O         4.94512064783507   13.55709137961058   13.79547918655228
C         6.06461592122883   15.94912122118673   14.92410020161260
H         5.05583299130163   16.34882689921182   14.84713437000845
H         6.50611407844226   16.37011273722105   15.82044338840646
H         6.62195565023757   16.31373737100977   14.06820711299479
C         3.73002395036051   14.11496167226248   13.54627667259665
C         2.54910222511324   13.53491616432166   14.08260023249283
C         3.64379177156969   15.23180740435283   12.75308833651862
H         4.55245082804714   15.66393531268589   12.36941034559881
C         1.29444570709196   14.11732189514141   13.76026058729693
C         5.34913336820543   13.61174928957702   16.71305150753217
H         5.26420842059425   12.54294439821135   16.86852999788901
H         6.01045154844977   13.99529540593294   17.48193208885036
H         4.36745642781263   14.04836960469030   16.87662419663911
C         2.58283693740915   12.40431224069927   14.92245164205175
H         3.54140798997603   11.97257449404567   15.15451199326283
C         1.42915086275315   11.86804561166228   15.42223232687729
H         1.46652134181109   11.00004482657294   16.06425413755888
C         2.40275592146479   15.80283100172791   12.44482661492312
H         2.37656877558785   16.68044818673887   11.81592025234417
C         0.12360156137122   13.53479472191038   14.29000008160413
H        -0.83016588481043   13.97802253870713   14.04092915438985
C         1.24872227943424   15.25767523103175   12.93218543159884
H         0.28838154532318   15.69219931386693   12.69617390062443
C         0.18730911369824   12.43700707093712   15.10149668851037
H        -0.71674595838567   12.00046605914735   15.50082662542983
Si        7.44006743038272   11.24193493778010   14.97025745005104
O         8.39515963397734   10.55681515173776   13.79529606767146
C         5.76373276500687   10.33059670655343   14.92421141612717
H         5.92203250428258    9.25714075561130   14.84716009535287
H         5.17822677316880   10.50230721871674   15.82050998954053
H         5.16933189709161   10.63088775802528   14.06827372809551
C         8.51947328844124    9.22559999542367   13.54623335062261
C         9.61223452282709    8.49294310637688   14.08260811960639
C         7.59537425271696    8.59252601006372   12.75303336890865
H         6.76682582857489    9.16340250984867   12.36935654480219
C         9.73520593984864    7.11519829721444   13.76024770714893
C         8.14533792292772   10.87966393472274   16.71290737781109
H         9.11343835804393   11.34043945422026   16.86827973480803
H         7.48272717382343   11.26047404839466   17.48207539139623
H         8.25818984163893    9.81119094460423   16.87637989187849
C        10.57445644582373    9.08749945922944   14.92247354598583
H        10.46906242486000   10.13353176495220   15.15446550079998
C        11.61571969569692    8.35653654355854   15.42228497528800
H        12.34875937060065    8.82293703156194   16.06426448867392
C         7.72138703740783    7.23226574898177   12.44474636058281
H         6.97443990280872    6.77078231950243   11.81584046887061
C        10.82511379588009    6.39251220313070   14.29000986832174
H        10.91816580863951    5.34491413993658   14.04094299036398
C         8.77051783016711    6.50542831550961   12.93212973160525
H         8.87437494460184    5.45648545287775   12.69613344569537
C        11.74394566004399    6.99659809614133   15.10152817855620
H        12.57403867533404    6.43195377935252   15.50086245503595

