69
CSD_code = FIYQIP | q = 0 | S = 0 | Stoichiometry = C28H28N4O8Zn | MND = 4
Zn       11.61056569100381   -0.00023530867706   12.47664477947843
O         6.89659953702274    2.45593975420196   13.97889909042398
N        10.08348153149556    1.01624581360307   13.16171958844063
O        11.73513660959002    2.29107796156082   17.21317897612521
C        13.56593602133393    0.20582773624120   14.89321699210800
N        12.42844019781951    0.42988298085346   14.19963209174854
O        14.46852245896748    0.79699554835792   17.07086502573170
C        10.32869293781331    1.45724533069927   14.42101487368889
O         9.10721513142719    2.60177284140123   16.19384703212757
C        12.23972977462759    1.50842434409965   16.20284915667848
C         8.81330862571011    1.34252400643075   12.82974152383914
C         8.19739255133046    1.99847377898619   13.95596334928896
C        11.59817391169046    1.19069288082402   14.96022662556180
C         9.14621750082959    2.07719785428782   14.95292950142940
C         8.16303127788837    1.15894439797585   11.60342766240231
H         7.18396694062571    1.62479721524399   11.58095841246630
C        14.69913346860493   -0.51955743173494   14.51728433573784
H        15.43810710322580   -0.55491331086575   15.30926251225567
C        13.46591533907367    0.87890576416057   16.16931749785875
C        11.74369895235599    3.67449566032832   16.92268986538534
H        12.77158960601894    4.05577742259485   16.85979100132538
H        11.22489056588000    4.15973779363322   17.74670549460173
H        11.22823083531992    3.89225887787286   15.98498005696301
C         5.92169794200606    1.44181127833860   14.13528235385889
H         6.03495680524945    0.65021432288089   13.38940893599025
H         4.95589065859754    1.92919023665588   14.01214778425944
H         5.97709722772394    0.99130337385228   15.13378825191550
C         7.87394861862730    3.11327616475716   16.64620382422076
H         7.46396086238440    3.84515715294229   15.94630551767406
H         8.08370514858166    3.58771255564653   17.60361024626950
H         7.14329200418087    2.31200663586988   16.79381516064515
C        14.30197393692108    1.48504214227063   18.29225701624146
H        14.34301588530934    2.56837091673025   18.14467784762072
H        15.13339963453071    1.17503096779045   18.92392369959290
H        13.35322597199578    1.22691146757581   18.76692869350891
O        16.32484202117472   -2.45549831772458   10.97398908600523
N        13.13767688209020   -1.01664993469739   11.79153374570341
O        11.48602761835896   -2.29147884601335    7.74007123365344
C         9.65530433093637   -0.20607739078779   10.05995994695146
N        10.79269198626607   -0.43034734883280   10.75365162420517
O         8.75289094494891   -0.79692880479089    7.88214947142607
C        12.89241798985356   -1.45775075114211   10.53228447500556
O        14.11384271320252   -2.60233223680275    8.75945268359098
C        10.98145572808276   -1.50878187156577    8.75038306596001
C        14.40795837494176   -1.34264305839804   12.12337579208446
C        15.02387539099967   -1.99852523630467   10.99711551225842
C        11.62293700454607   -1.19120075094488    9.99307774592194
C        14.07493335334182   -2.07755455151487   10.00028592401793
C        15.05835604166046   -1.15886036243809   13.34959350574367
H        16.03755850806349   -1.62443161269036   13.37192218064085
C         8.52222808992296    0.51955435177404   10.43577769124421
H         7.78334339092002    0.55507181991478    9.64372362454151
C         9.75535432236157   -0.87909698650634    8.78383056193280
C        11.47713556656756   -3.67490486882216    8.03051427615237
H        10.44915443450733   -4.05592556051979    8.09349197644019
H        11.99574916520028   -4.16025127414518    7.20643688471328
H        11.99263428374080   -3.89282523621319    8.96817327445576
C        17.29923356585280   -1.44095818040516   10.81708752026308
H        17.18595846587412   -0.64935821191090   11.56295975946367
H        18.26531340823697   -1.92789619762300   10.93981761554001
H        17.24317873844526   -0.99053652192284    9.81857876093924
C        15.34707510471720   -3.11392376535562    8.30709716370635
H        15.75716715162953   -3.84558715552293    9.00716223854430
H        15.13722279109635   -3.58864834783795    7.34985468262229
H        16.07769093362373   -2.31267834965040    8.15916724584122
C         8.91985179522361   -1.48422948038215    6.66038695776576
H         8.87865075533941   -2.56763708243355    6.80725662918724
H         8.08872900150976   -1.17373382708808    6.02856573003348
H         9.86881888099870   -1.22591317808991    6.18627663598054

