69
CSD_code = FIYQOV | q = 0 | S = 0 | Stoichiometry = C28H28N4O8Pd | MND = 4
Pd       -0.00014645776789    6.30246548599497    0.00020608818829
N        -0.86366138873545    4.56410807653375    0.32701521192732
N         1.20445367427221    5.67914144972165    1.42694626831364
O         1.68563168102496    2.97747524113409    3.77913217450429
C        -2.84581259574634    4.18064150481572   -1.14004025012104
H        -3.57790433841065    3.39407940354758   -1.27672801904118
C        -0.88149603872842    2.55004646618949    1.40743404116358
C        -1.90626042203308    3.85235867782196   -0.15717022513917
O        -0.51259029834394    1.51645598019857    2.23797901492283
C         0.85648516106315    4.45443000885161    1.92224920339859
O         3.69996408462841    5.35142279958466    3.91654617844519
C         1.73991733154377    4.11269939872019    3.00289834092113
C        -0.23184190831901    3.82629903789437    1.28751506481299
C        -3.00434809799022    5.28032600515097   -1.95713302335598
H        -3.84266580692155    5.23056539598324   -2.64133117152216
C         2.63714974212218    5.15009788878791    3.10800257551408
C         2.28407737792625    6.13408578164820    2.10190166858604
O        -2.89336214535830    1.66507439428931    0.23263295556652
C        -1.93178230290740    2.56899281864542    0.51928761119563
C         0.60430908553089    2.95547039549420    4.69262308595693
H         0.70033928446043    3.75938363126926    5.43267926046796
H         0.65319066856753    1.98992906841214    5.19162991768352
H        -0.35507159797522    3.05289755424112    4.18072760280479
C         3.97319962481866    4.36523527192775    4.88847254857758
H         3.19815093215864    4.34476686107117    5.66013083534684
H         4.92403514006601    4.64695254913656    5.33846685882357
H         4.05149805180136    3.37400633459432    4.43702292838908
C         0.66776658937409    0.84721091676243    1.83397722948139
H         0.52822938403206    0.35951886697922    0.86138194733971
H         0.86214924387320    0.09585914633545    2.59645601440418
H         1.51589671562647    1.53203869711972    1.77262823995696
C        -2.84513956277596    0.42805625719037    0.91016658902024
H        -1.97918886005504   -0.16184828167451    0.59604037650522
H        -3.75904577084259   -0.09684694644075    0.63579596958395
H        -2.80502646591647    0.56938969697411    1.99236094854452
N         0.86350202953683    8.04073837871172   -0.32675698832338
N        -1.20458363729452    6.92569173098386   -1.42673964784943
O        -1.68554965180778    9.62717383172531   -3.77917286348309
C         2.84577250762840    8.42412544344451    1.14013704376575
H         3.57791912406451    9.21063415427831    1.27678500134451
C         0.88133309008238   10.05479042138780   -1.40722830883056
C         1.90609109028022    8.75251226668258    0.15743467957491
O         0.51249090338041   11.08830559189256   -2.23785938536855
C        -0.85657231696605    8.15036937282971   -1.92209270978416
O        -3.69992042050888    7.25329083128378   -3.91652757859611
C        -1.73991057953779    8.49201819925742   -3.00283922981081
C         0.23170730354580    8.77850457011004   -1.28730816266894
C         3.00438521268047    7.32437293058470    1.95713897864895
H         3.84283349848483    7.37405519113970    2.64117484798260
C        -2.63713255331978    7.45460800001521   -3.10795316199411
C        -2.28410766473507    6.47067663067610   -2.10177895907978
O         2.89298676168440   10.93992167379034   -0.23217577087994
C         1.93152752502426   10.03591033694092   -0.51898213882740
C        -0.60422487666719    9.64900513851109   -4.69267114411374
H        -0.70034828513505    8.84506220260237   -5.43267698446903
H        -0.65299303045509   10.61451869441963   -5.19173816272262
H         0.35514879327548    9.55148597660431   -4.18077562391543
C        -3.97307279815673    8.23956071429855   -4.88843244306730
H        -3.19775543506958    8.26032607903774   -5.65985472196100
H        -4.92373700189258    7.95769781330109   -5.33876566175016
H        -4.05173712842119    9.23075634687878   -4.43685998625344
C        -0.66795796595369   11.75749489951677   -1.83411989002469
H        -0.52862550658744   12.24507180416598   -0.86151088993186
H        -0.86216985912406   12.50889181265073   -2.59651952575917
H        -1.51605476270555   11.07269979218209   -1.77302121426586
C         2.84535480549475   12.17652270041701   -0.91042359680044
H         1.97905156155104   12.76649749205768   -0.59768509271796
H         3.75901916319698   12.70164156278549   -0.63550690750779
H         2.80623039036179   12.03448157993157   -1.99259786172625

