81
CSD_code = FIYVAM | q = 0 | S = 0 | Stoichiometry = C40H37CuP2S | MND = 3
Cu        6.09521424334952    5.08979500808791    3.59453446766306
S         6.56507644633556    7.23141304528681    3.57726980633187
P         5.29642157473840    3.51021700552737    2.18582129802362
P         6.75219787926856    3.35213964195751    4.88656287618323
C         6.61187314581333    2.26355476592018    2.35497172337044
C         7.01465750686754    1.43727273190849    1.31120753819539
H         6.53263282710724    1.52419416982547    0.34581195442883
C         8.03274772211715    0.51991308210282    1.50144979654864
H         8.34069792703956   -0.11730339093378    0.68541513034548
C         8.65951364285353    0.42103146122929    2.73462052690491
H         9.45416017478771   -0.29555369385122    2.88097829928674
C         8.27593505686816    1.24451368954956    3.77789241274491
H         8.77256436554004    1.17657579462345    4.73635168778733
C         7.25128149879265    2.16856586067006    3.60019730834986
C         3.83055223743622    2.52676038524801    2.66012491533269
C         2.76805936044934    3.14287303922455    3.33189929999964
C         1.68575152233475    2.36096643767676    3.71569062909668
H         0.86372604532224    2.82564366599386    4.24107899391906
C         1.63998867772852    1.00834618514025    3.43414110706348
H         0.78632416459103    0.42262765954725    3.74151651205065
C         2.68737476461835    0.40791658251913    2.75588632716735
H         2.65525773340914   -0.64679959578264    2.52526941186403
C         3.77963383552155    1.16350605456297    2.37822989374450
H         4.60051031794921    0.69384024184389    1.85429780173085
C         2.76367815826863    4.61208450895148    3.60654562654460
H         2.02382904290874    4.86437192100537    4.36220027698369
H         2.52512325586292    5.16449752242835    2.69594010798601
H         3.74514449613906    4.95193106268095    3.95176679334391
C         5.11198309720755    3.70178693722734    0.39010882922294
C         6.14172971403444    4.33807719422010   -0.31980450062942
C         5.95062311945510    4.60078338608505   -1.66856261646385
H         6.73711670695206    5.09123250330457   -2.22389078477953
C         4.76878820940984    4.26449426789037   -2.30513152063127
H         4.64065428969480    4.48519809462431   -3.35447814092101
C         3.74643276769049    3.66073147743224   -1.59268167971943
H         2.81595635901716    3.40939099985314   -2.08026972482720
C         3.91395127933471    3.38928319323483   -0.24821396846790
H         3.11171462874028    2.92949139120761    0.31272190540583
C         7.42094706395845    4.72288342932403    0.35025878857218
H         7.92514784140982    5.50798189291873   -0.20831233805255
H         8.09286622114057    3.86592849066501    0.42707988440583
H         7.23012272565532    5.09187086401987    1.36397965493181
C         5.33507412174489    2.53362238664562    5.67196772887225
C         4.55865557451984    3.29494478894496    6.55751614925395
C         3.42160914619823    2.71708905986922    7.10357392591632
H         2.81088303696603    3.29495968744090    7.78273388182190
C         3.06237168453619    1.41623116028879    6.79675531421432
H         2.17318367099740    0.98611278572922    7.23327084890168
C         3.84453022609268    0.66465441253639    5.93693738668114
H         3.57434975724175   -0.35434034068981    5.70375481904999
C         4.97376969774413    1.22417733974576    5.37054743204891
H         5.58291166303355    0.64056277018584    4.69396823681775
C         4.97244734824910    4.68204569749527    6.93013842712725
H         4.16806980391442    5.20942418324986    7.43702571225122
H         5.26946722492173    5.25756733701669    6.04679604798720
H         5.83693602716704    4.64870087286941    7.59581837533216
C         8.06962590602794    3.19869076524546    6.13038684168377
C         9.25644003398226    3.90982757695876    5.90222609410008
C        10.25517356382208    3.85386381343093    6.86311698864551
H        11.17584072917720    4.39572671097001    6.70021037693561
C        10.08675204235088    3.12350700650246    8.02754685004781
H        10.87617339100638    3.09624457660255    8.76403757375802
C         8.90723501621167    2.43341591788423    8.25056356921265
H         8.77169899871483    1.86504073444534    9.15890430659113
C         7.89791094079620    2.47511476491890    7.30659769357208
H         6.97404570376570    1.93919348444594    7.47698210266053
C         9.42782509721871    4.70424204020587    4.64847344674935
H        10.39521590478490    5.19968223220088    4.62743267264519
H         8.64714424130958    5.46785666495152    4.57225111137241
H         9.34824317168846    4.05949391154723    3.77047654792391
C         6.04462039301150    7.75771424689883    1.99364034715904
C         6.60682141777615    8.91141347620477    1.44729725846471
H         7.34296794573038    9.45203572710912    2.02293981105847
C         6.23202037149670    9.34181953962184    0.19170204330313
H         6.68215133656476   10.23332610056796   -0.22303632187986
C         5.28960802251755    8.63777525046489   -0.54338239209918
H         5.00485324486108    8.97349092286442   -1.53014167494821
C         4.71235743209080    7.50317582551085    0.00138313174612
H         3.97103962312526    6.94612289258022   -0.55630162584138
C         5.08166460292446    7.07131054550437    1.25909876175309
H         4.62055023799875    6.18513416609049    1.68531388807353

