70
CSD_code = FIYYIV | q = 0 | S = 0 | Stoichiometry = C31H30N6NiS2 | MND = 6
Ni        6.10646687972426   -1.00062456298854    6.64726342459769
N         6.97840665182946   -3.43499700436634    6.26164995409804
C         7.85672262916910   -4.18448665044392    5.93923652262440
S         9.03819411141101   -5.22017975193410    5.92938932232499
N         4.73613062111571   -0.02325547871573    7.48265535690547
C         4.27003535006726    1.04956740127723    7.65752572623427
S         3.55898101011569    2.42076057022259    7.96503898622793
N         5.90587947464193   -2.74464787632803    6.00644909920210
C         5.27920410259604   -3.07746372990502    4.72224561911118
C         4.44400474166140   -4.35322342930196    4.89571606594754
C         4.42385269243798   -1.92693606186646    4.25747288640006
C         3.45400741737821   -1.38710585413284    5.09880062798874
C         2.67737675496445   -0.32212974267040    4.67336013327326
C         2.84589769111272    0.19884894558577    3.40093282011293
C         3.79090251006550   -0.35110871155715    2.55070583747500
C         4.58043883939978   -1.40448438911097    2.97984741734549
N         6.62523485318259    0.27060822739375    5.74818314647165
C         6.05977501944594    1.38467844082213    5.12354716532403
C         7.08185925506287    1.88769406335994    4.11776561102768
C         7.93791159720630    2.93023778709710    4.43863635640443
C         8.88083176826732    3.36264352922423    3.52189231410541
C         8.98038981395684    2.74892795148355    2.28508301607791
C         8.13371237462212    1.70051993179530    1.96658516174638
C         7.19036683965123    1.26742013367312    2.88151564021334
N         6.77901867356979   -2.41106323787940    9.37681012985179
C         5.53056662313949   -3.09512255202678    9.30148837786212
C         4.76046690117380   -2.67930548146417   10.53559588275799
C         4.78018769151880   -3.45328301565523   11.68692356606167
C         4.09842506854132   -3.03368614717987   12.81610955202427
C         3.40552065996802   -1.83479819015539   12.80495046687641
C         3.39242449667301   -1.05610651138968   11.65985245215834
C         4.06957847407748   -1.47471304436187   10.52830878056572
N         7.07003737379533   -1.62609583376907    8.46843761948221
C         8.24728713772201   -0.82678823374572    8.73889260666930
C         7.72788173579621    0.56164122568828    9.04956973186536
C         7.99267684267164    1.63616467364937    8.21257766020072
C         7.46646857115674    2.88302153525484    8.50661662611342
C         6.66547654129544    3.06027160594708    9.62096835475989
C         6.39775518391276    1.98811756430362   10.45535211688756
C         6.92795615521898    0.74365912741124   10.17186676961525
H         6.06959478694733   -3.27244557243191    3.97672795305921
H         3.97630461521236   -4.61502082937281    3.94997820021631
H         3.66859069280975   -4.19755897218257    5.64121491898666
H         5.07979268952453   -5.17735725149283    5.21417767438046
H         3.28826401540426   -1.81405122316045    6.07866016179926
H         1.93922825140499    0.10080623395936    5.33787851898213
H         2.23951775261054    1.02898507856634    3.07031784629402
H         3.91838185877524    0.04599371109020    1.55395945962939
H         5.32053953545233   -1.83027811149656    2.31568364972566
H         5.10805586802921    1.16088177014329    4.61441644722463
H         5.86873954770907    2.16986811610360    5.87326091783141
H         7.86103986551259    3.41010671456929    5.40293840697216
H         9.53983662821091    4.17999954545148    3.77540401246113
H         9.71775521833197    3.08548596724711    1.57155145815517
H         8.20954199402210    1.21717034065956    1.00364768042845
H         6.52993561635284    0.44823211825321    2.64024747995584
H         4.98023390796914   -2.82645849820752    8.38355483017176
H         5.73684061766216   -4.16798635477868    9.32979324440116
H         5.32620173295493   -4.38534297914386   11.70032219168950
H         4.11164475631263   -3.64299582447647   13.70776342731322
H         2.87856781716009   -1.50719690233542   13.68885387426305
H         2.85747444417710   -0.11836360553395   11.64480514669754
H         4.06652915967763   -0.86570546102638    9.63587268998915
H         8.87930339637308   -0.80651133473399    7.84726937545222
H         8.79003878789161   -1.24210160081047    9.59724409482956
H         8.61140792404368    1.49883002143544    7.33757482956810
H         7.67815653460446    3.72290521392362    7.86061052279931
H         6.24212611216511    4.03012129909677    9.83419024406728
H         5.76720989592630    2.11814680643811   11.32187160939186
H         6.71183484835545   -0.09733563896578   10.81679022826739

