75
CSD_code = FIYYER | q = 0 | S = 0 | Stoichiometry = C30H36N6NiS2 | MND = 6
Ni        0.31853338058399    0.93012778065157    5.78237002005000
N        -0.32965538745664    2.35032314454157    4.96572591794632
C        -0.40390098218947    3.51232450995610    4.80443748395544
S        -0.58715470702265    5.05783466468223    4.48119170961949
N         0.92764361236614   -0.56589307737707    6.56800871674075
C         1.64392273851675   -1.06563624845322    7.35880664391011
S         2.56877638212848   -1.82996419546871    8.39459932204858
N        -0.37126712078034    1.63442993295545    7.86931802345802
C        -1.08116044827574    2.88686400306378    8.18046558040502
C        -2.55120977911212    2.76137639188761    7.88549191091980
C        -3.32631117603439    1.86487150082279    8.61410029512714
C        -4.68174198496633    1.74110433623501    8.36696815833351
C        -5.28149097647745    2.51502282554903    7.38670128461394
C        -4.51829778017463    3.41245572457667    6.66045718649579
C        -3.16085820885901    3.53548713165627    6.90843228239546
N        -1.68486187617018   -0.13322650543767    5.45620181070270
C        -2.85002664705273    0.53565322762344    4.85887556541167
C        -3.98275693677230   -0.43440177348594    4.64210081654242
C        -4.80961698938885   -0.78817188529588    5.70172488617466
C        -5.81938899188897   -1.71687273629958    5.52688740243519
C        -6.01160565095388   -2.30821269000330    4.28938284399652
C        -5.19112145965927   -1.96528841975406    3.22865318032271
C        -4.18123954311184   -1.03576443087466    3.40613065753409
N         1.05122534938742    0.07587096688460    3.77367829826671
C         0.31251691756991    0.28171523366260    2.52233011005112
C         0.72318674582609   -0.68305635435895    1.43695966068766
C        -0.21256608187818   -1.51491544214133    0.83605937543102
C         0.16676149592684   -2.41242769399619   -0.14684749002692
C         1.49209923497852   -2.49511072095280   -0.53639972499722
C         2.43427205594136   -1.67482474490050    0.06106528295403
C         2.05241460491062   -0.77677364477981    1.04084432630818
N         2.33671041535514    1.94930686712081    6.13157267601214
C         2.86689242667361    3.10742068368252    5.39426629942222
C         3.24015672703671    2.73737394030650    3.98505773886556
C         2.52450468362464    3.22699056918519    2.90070657036766
C         2.90615620132784    2.90965780140751    1.60795942542332
C         4.00599112300377    2.09841112296153    1.38516239716408
C         4.71847705911454    1.59465312077842    2.46198169165500
C         4.33653041498443    1.91247214411264    3.75332069704430
H        -0.92700666701659    0.85234280199102    8.21344661614184
H         0.50246140447632    1.60901553930337    8.39203698151064
H        -0.96116356893204    3.14205102925673    9.24541247635042
H        -0.64897572004311    3.69192870512608    7.58269714761920
H        -2.87299562415562    1.26802454122011    9.39524921643747
H        -5.27359637845083    1.04770124495632    8.94761207697978
H        -6.33937590796353    2.41846987495550    7.19316721115908
H        -4.97937606782748    4.01946671997428    5.89608488119609
H        -2.57180983625219    4.23518757086072    6.33731367281092
H        -1.95685276063091   -0.51830974198817    6.35928134061387
H        -1.42156719254731   -0.92564642014131    4.87098843797529
H        -3.15795112527156    1.34015326099950    5.52819685188987
H        -2.54197040195179    0.98488387107367    3.91309565049860
H        -4.66457425650983   -0.31884430404675    6.66453861088760
H        -6.45985355825289   -1.97896587433069    6.35617083137822
H        -6.80163807041728   -3.03116792901481    4.15139754871365
H        -5.33986437902349   -2.42112772347375    2.26085083681800
H        -3.54752629938721   -0.76369854272645    2.57341341608056
H         1.11096206117959   -0.92404090863357    3.96555681041331
H         2.00396935567104    0.41606162366244    3.65766813729245
H        -0.75356336332640    0.16475049751548    2.72436731665621
H         0.48202537837150    1.31320731274154    2.20186050215826
H        -1.24936098290122   -1.45705950640942    1.13656541894431
H        -0.57320417975581   -3.05087345679743   -0.60659182480312
H         1.79021898312718   -3.19623091652623   -1.30147732298473
H         3.47042696627114   -1.73398488596326   -0.23811372034638
H         2.79224021233033   -0.13376303892932    1.49504276617222
H         3.01151766130338    1.18599056317495    6.08161279263122
H         2.26356204610883    2.20923306318392    7.11337554582592
H         2.10224378329474    3.88621266313109    5.38167324277256
H         3.76082316278779    3.50679104212418    5.89934559923864
H         1.67309718593287    3.86680125384720    3.07092547431823
H         2.34768349448148    3.30165868179974    0.77096709202354
H         4.30929509087214    1.86045052593578    0.37621253091225
H         5.57710451510288    0.96044082833316    2.29537476645367
H         4.91005619828383    1.52988297322732    4.58713203345192

