97
CSD_code = FIYZOD | q = 1 | S = 0 | Stoichiometry = C49H40ClN3OP2Re(1+) | MND = 6
Re        0.77180517040163    4.41241683698655    3.69563687266959
N         3.21813081415237    4.04870640494878    4.03483366138754
N         3.35874695090194    3.09327324907621    4.86640624237776
N         1.10677915962381    2.95101832475102    4.80473090927173
Cl        1.03008569175588    6.35584873301030    2.56262671751362
O        -0.90860170295560    4.24600016693478    3.70794606896300
P         1.56291255273408    3.03499157698193    1.76165617046994
P         1.20773493698999    5.97072144753743    5.56784572101780
C         1.96706178568328    1.38217588261276    2.39531824181232
C         3.24157402103641    1.03903471603525    2.84510903487289
C         3.45343530177728   -0.18637469088933    3.45116395740251
C         2.40154292000132   -1.06817158533046    3.63311978506257
C         1.12957281400350   -0.72441169068266    3.20470385413656
C         0.90900255686909    0.49597492402741    2.59505082791103
C         2.88845359971295    3.58947745621809    0.65006894787807
C         3.91278143985468    2.74666225626311    0.22675676238417
C         4.86119588469429    3.21333509389943   -0.66612875203222
C         4.78967279348968    4.50741639710008   -1.15415979530515
C         3.74663279951773    5.33317784538606   -0.76849458103210
C         2.79686559346357    4.87729513812831    0.12587912389123
C         0.18763861790471    2.74736388743103    0.60383507163540
C         0.48400309259538    2.14108566045457   -0.61667794798238
C        -0.53170065682740    1.88159908665088   -1.51670177185032
C        -1.84030380970794    2.22346437267921   -1.21126950367169
H        -2.62872147668579    2.02255420331682   -1.92006895573040
C        -2.13619195420160    2.82233771546929    0.00193961007318
C        -1.12445811869857    3.08495632258625    0.90922031532503
H        -1.35920270982148    3.54906278081060    1.86287090886619
C        -0.03026524821005    7.29380892307221    5.59485866665642
C         0.24045467445390    8.45647265318517    6.31409323502245
C        -0.72629511891441    9.43960717862035    6.40856487010008
C        -1.96038230475019    9.26625635532168    5.80092824242626
C        -2.23609293508224    8.10089503151056    5.10440437148120
C        -1.27508579617017    7.11099131178202    5.00373957185039
C         0.96359651418629    5.19656585919156    7.19262928608193
C         1.60301255910147    5.68321513722468    8.32947155797368
C         1.33764847505096    5.11045581457788    9.56018340338216
C         0.43373841409258    4.06545642088881    9.66413816216412
C        -0.22636194973262    3.60190015422225    8.53716919850640
C         0.02897480490273    4.16984234259916    7.30297744167474
C         2.84172308160404    6.74003591040397    5.56131426119503
C         3.05885948591495    7.91968960333532    4.85227880037899
C         4.33154698334671    8.45664068356651    4.78685616723276
C         5.39035497602873    7.81853179825357    5.41285161782832
C         5.17931845774787    6.63706272139182    6.10640488758578
C         3.91175801512707    6.09070065283644    6.17737554495811
C         2.20042148348129    2.49809020129502    5.29004520433701
C         2.29893622725392    1.37028968247804    6.21405150349685
C         3.52229250640907    0.98253634352732    6.75245486931588
C         3.58671769244946   -0.10349168904032    7.60500510156824
C         2.43664172344076   -0.80728935052410    7.92496352166916
C         1.21586109826422   -0.42065211192901    7.39356054762546
C         1.14378026164069    0.66365472580151    6.54169804805779
C         4.39005728859704    4.57797248098638    3.51118094354789
C         4.34335972800402    5.72346812289434    2.71361886557648
C         5.50386526574713    6.23394078631737    2.16868825389879
C         6.72117651977649    5.61516697387000    2.40242715824389
C         6.77616070999305    4.47638893791812    3.19511362625909
C         5.62660773660772    3.95867751776052    3.74859069423202
H         3.40087735646856    6.21264448469536    2.53488178791765
H         5.65371111438206    3.07282369379865    4.36433198742175
H         3.96142275023456    1.72355268289497    0.56681866922052
H         4.41142539219463    1.53791127176339    6.49815104424947
H         0.23879159285063    3.61753383852673   10.62626990727552
H        -0.48462315494972    3.81551961608620    6.41719554860194
H         0.20519253449460    0.97658977756056    6.11093357748788
H         6.38207491795345    8.24017393798260    5.35837179486738
H         2.23468535284381    8.40914711555947    4.35297938606158
H         1.83882183855960    5.48327922707479   10.44048815764045
H         5.53542940020070    4.86414412094618   -1.84768913509574
H        -0.51551950292026   10.34392135540334    6.95884355662857
H         4.53584106223871   -0.40448986530950    8.02237294851539
H         4.49704988471323    9.37407284468488    4.24318742236419
H        -1.49180119066452    6.19588417028308    4.46183220568649
H         7.62486279437690    6.01560218754909    1.96983117060718
H         3.74757622760302    5.16105689239812    6.70612639157530
H         0.32072628909536   -0.96926948832043    7.64457125740837
H        -0.94136690131175    2.79832300660638    8.62037766792503
H         6.00510326457822    6.13722609776802    6.58915784913543
H        -2.70852847736815   10.04049209132627    5.87341409064574
H         1.20115527042280    8.58912840887320    6.79219349453248
H         2.49180290436629   -1.65661543188494    8.58878881110116
H         7.72306096411566    3.99154271926247    3.37779695533987
H         0.30593669276286   -1.40562168796050    3.35261535663795
H         1.98033362974189    5.51997544294931    0.41949644056746
H         1.50400592524582    1.87510433994349   -0.85627174709077
H         2.30376975620415    6.50279148192908    8.25537964687193
H        -3.19921470260915    7.96252173016277    4.63768299421437
H         5.65441326425515    2.55598389821484   -0.98867097380598
H         3.66826003335727    6.33239045129163   -1.16860486665592
H         4.06792938577829    1.72625793547873    2.73392384741207
H        -0.30084858112448    1.41172247026576   -2.46058662501199
H         2.57189009797550   -2.01747816390930    4.11654790075643
H        -3.15408944591537    3.08760767397427    0.24283127871058
H         4.44292288778198   -0.44764801483764    3.79395131365933
H         5.45622257151229    7.12077289353423    1.55606102324551
H        -0.08603259790768    0.77305110771664    2.27566274174339

