65
CSD_code = FIZFOM | q = 0 | S = 0 | Stoichiometry = C28H26BN4O2PRuS2 | MND = 6
B        -1.84596170856187   12.53063367539618   11.60666193138070
Ru       -0.63498747784336   11.65427889509063   13.23652353944393
P         0.63879681129548   10.61026453615218   14.94316340041461
S        -2.41330037213118    9.87946542489839   13.32517029333512
S         0.52831417481115   10.35933297937205   11.43268605085041
N        -4.77620538029519   10.32029001587390   12.08190946512012
N        -3.23638777867459   11.82328768003415   11.64920175203479
N        -1.20681576179579   12.05687912437281   10.26273798091890
N         0.02220902741342   10.92750319751557    8.83693717539489
O         1.12582360883547   13.97333433078212   12.56308937647473
O        -2.63995951684858   13.23425260690895   14.78601776196552
C         0.46386104919290   13.07694985191919   12.85885508812428
C        -1.81717239816003   12.64803684579279   14.23006737233426
C        -0.24736249776285   11.13351187525551   10.14698073383493
C        -1.54780164846207   12.45304932692936    8.99873525941629
C        -0.79512926488518   11.76135740014324    8.11108814429047
C         1.00043507649973   10.01936072333495    8.31270714017712
C        -3.49920186851209   10.69730282445743   12.32011587974293
C        -4.37479901404149   12.17520836572872   10.97886451023076
C        -5.33199240585539   11.25349475284990   11.23893853859256
C        -5.42929731172786    9.16964114387345   12.63471463245186
C         2.24991006633323   11.42737171370807   15.20075283560038
C         3.03852661943792   11.58523023715960   14.06341393743286
C         4.28203549743028   12.17921552139821   14.15271720455580
C         4.74772280044832   12.62579700604431   15.37956655008485
C         3.96998043699292   12.46688000807251   16.51368816586934
C         2.72581939790771   11.86536568367304   16.43053574614060
C        -0.16054274919645   10.75481542090136   16.56933891614154
C        -0.44796073365786   12.04492410461016   17.01445038646466
C        -1.10855528351816   12.23638117623397   18.21112330865830
C        -1.50393734417884   11.14111397901197   18.96554371932407
C        -1.23697027623227    9.85898240969608   18.51795717381813
C        -0.56705290767291    9.66073588429484   17.32211603556001
C         1.18806239310312    8.86741043334634   14.93357389794279
C         2.20274704314517    8.43109318313245   15.78221200360897
C         2.59861081333758    7.10772347912717   15.75882134038458
C         1.98996400828018    6.21278420730944   14.89179114637063
C         0.98127936702608    6.64319597093761   14.04741090236802
C         0.58103070739041    7.96784603947562   14.06602323689120
H        -2.04972618678653   13.70285880893679   11.50561111557674
H        -2.29192512010774   13.20317449581922    8.83127376355817
H        -0.76456230878632   11.78821746721422    7.04142939575747
H         0.52244118881786    9.26296443092409    7.68741532085092
H         1.73939672831750   10.55925664129048    7.71831562378481
H         1.49527912352030    9.53401252828838    9.15286380978485
H        -4.41826710491932   13.06157978870000   10.38130725226140
H        -6.34784551781669   11.18026357170484   10.90965272400479
H        -4.75365843633100    8.71120257057039   13.35571760331525
H        -6.35249546994120    9.46466825262674   13.13538198148892
H        -5.66286297902999    8.44689667820756   11.85007920996889
H         2.66289401750930   11.23796259916168   13.10702530509871
H         4.88743336317377   12.30093477601354   13.26645399433936
H         5.71614488853869   13.09898487412693   15.45099174862167
H         4.33299318152309   12.81272555525495   17.47106379893674
H         2.12489185030256   11.74418904665159   17.32124982026064
H        -0.14670908228936   12.89055135317519   16.40468442645968
H        -1.32451218022286   13.23752647922320   18.55454059308315
H        -2.02733045224001   11.28977897723050   19.89877145773602
H        -1.55418458889822    9.00602768019473   19.10071535240419
H        -0.36674558792834    8.65803021253266   16.97110294876052
H         2.67730366772325    9.13031672308244   16.45689908544724
H         3.38614940503333    6.77098919813588   16.41780150479794
H         2.30595477166820    5.17965076757919   14.87543375253772
H         0.50669433809193    5.94757814852555   13.37076166198526
H        -0.20558670785094    8.30785634020023   13.40475421545602

