81
CSD_code = FIZLUV | q = 0 | S = 0 | Stoichiometry = C41H37P2Re | MND = 9
Re        7.11062931172526   11.12487547937605   10.26517799630181
P         5.91622925511666   11.90146362536434    8.35091822049424
P         6.44667392944072    8.91652687304391   10.86097427477687
C         9.03037830912569   11.12679961907006   11.63972696026662
C         9.40615506848299   11.81588640114497   10.46391960389776
C         8.62358470625496   12.98749136645836   10.36928264660559
C         7.75125396880859   13.01963747408406   11.48067289262448
C         8.00436152348620   11.86909162478097   12.27088077164416
C         4.25192770459313   12.62370933620399    8.57476633043976
C         3.14058305779574   12.25183610140899    7.82841963848612
C         1.90810610455181   12.82530432146808    8.09192139553068
C         1.77357308505202   13.76650273131092    9.09810891680983
C         2.87552434302998   14.12822383944531    9.85753593800532
C         4.10433026753041   13.55181495523524    9.60222690865798
C         5.66668062414855   10.77663335548663    6.92996128207423
C         5.44187620497282   11.28018321241552    5.65164747600587
C         5.25157933900775   10.41237262577646    4.59136891872301
C         5.28153550081401    9.04227245401089    4.79840639693805
C         5.50026291910401    8.53849996652291    6.07070529854126
C         5.69139014039169    9.40297233151330    7.13314166876382
C         6.83321276808681   13.24120661422638    7.52374193277579
C         8.03923727575253   12.87270257409707    6.92989230011037
C         8.84940641200682   13.82684545211299    6.34779363980790
C         8.46606573509609   15.16036734880612    6.35946264690621
C         7.26955626440897   15.53023618008625    6.94922082585025
C         6.45145111354396   14.57607595297051    7.53231612655758
C         6.88217695489862    8.57442354667418   12.59605558185315
C         7.93293940069458    7.75591972113699   12.98854685875500
C         8.24680160106815    7.63331155313327   14.33211293901526
C         7.51927829197169    8.32398340544265   15.28607301907480
C         6.46799967863710    9.14142401203406   14.89733391416400
C         6.15355989954173    9.27001105262852   13.55899427235622
C         7.18345851344057    7.49550149487974    9.97540521397357
C         6.44671347490052    6.42383084389978    9.48622478787648
C         7.08364309194850    5.40080245946336    8.80440800385603
C         8.45280920331492    5.43829390383656    8.60347754834257
C         9.19033238601877    6.51354505279934    9.07389397488111
C         8.55629514824833    7.53954640119532    9.74704746688930
C         4.66916730609574    8.48718223104711   10.88670167084744
C         4.19164668085120    7.44694501289687   11.67921939814084
C         2.84271861286070    7.14027942923035   11.67641671416401
C         1.96512325527065    7.86426019288465   10.88488861382809
C         2.43843160012523    8.89796077890399   10.09245273960194
C         3.78611468954869    9.20813988410863   10.09298764156310
H         7.70480519767992   10.27498714790665    9.02989838885536
H         5.62667087870320   11.31988879548075   10.86156110413404
H         9.52943314499355   10.26252121996566   12.05956094066147
H        10.22735289193480   11.55426240572293    9.81104682998803
H         8.74787185540179   13.77386308349278    9.63666755915863
H         7.12293133003193   13.85356862680026   11.76519852068100
H         7.60866181363895   11.67888715899286   13.25998492378381
H         3.23709206865122   11.51386890820760    7.04565056438144
H         1.04673814515190   12.53370598958654    7.50805312218294
H         0.80990021818905   14.21197000029000    9.29775607332318
H         2.77013887179215   14.85460184202633   10.65070925268182
H         4.96799564415015   13.80148681873120   10.20321015443727
H         5.41838607610917   12.34960294325404    5.49057815593953
H         5.08177762563776   10.80551685923531    3.59927332973347
H         5.13693985591217    8.36914970172468    3.96587925675599
H         5.52749249797864    7.47140465593395    6.23601179429871
H         5.88092251799146    9.03607845265387    8.13570224780786
H         8.32706120655027   11.82927511601122    6.94692724861774
H         9.78443253234981   13.53759696418080    5.88944537752335
H         9.10258205560537   15.91000190367027    5.91199558709362
H         6.97137602409706   16.56910350567561    6.95987333232019
H         5.51780578677715   14.87086775471742    7.98998556854143
H         8.50249266810825    7.21205048646270   12.24791803787942
H         9.06637223495323    6.99670952454236   14.63447031803650
H         7.77167111097839    8.22815616047439   16.33219542740210
H         5.90015288722810    9.68175445025310   15.64160421051885
H         5.34589477195265    9.91323047617718   13.23327475135268
H         5.37732405168687    6.39034036966166    9.63379961350331
H         6.50593730506643    4.56927277240943    8.42667019948470
H         8.94474482329725    4.63594149453773    8.07318969846273
H        10.25764598586514    6.55050793555395    8.90847984313830
H         9.11420417471930    8.39894194958214   10.09299531828669
H         4.87661427177610    6.88201471808589   12.29719306881334
H         2.47376753787181    6.33518196507167   12.29558985123808
H         0.91208369768764    7.62307162144775   10.89014103736208
H         1.75718797292709    9.46748431720113    9.47742898441307
H         4.18116354471642   10.02343911161248    9.49694894044034

