49
CSD_code = FIZQEL | q = 1 | S = 0 | Stoichiometry = C20H20MnN6O2(1+) | MND = 6
Mn        4.33387716784300   10.56589151896562    9.15944798083475
O         3.17922643674246    9.01771512776800    7.19182584342403
N         3.68717645916816    9.67814417309270    8.02302494151179
O         5.58231963947717   13.82223029744451   11.12587860909127
N         4.38856460613665   12.29112708620151    8.15634945121657
N         5.00215680180646   11.68050842584788   10.53187123158143
N         4.62353407547645    9.12106470456167   10.61383985343549
N         6.25355789372973    9.93361282814051    8.68154353850436
N         2.54793149157994   10.82617599460846   10.15097139004770
C         4.05211288721413   12.54761263358431    6.88570883064166
H         3.64399571708864   11.72334973646204    6.31244839153157
C         4.20304772770774   13.79567742958028    6.30589782743675
H         3.91379355072924   13.94279456465639    5.27790882393917
C         4.72252040891621   14.84005776021990    7.05930176727329
H         4.85030566268426   15.82190527592953    6.63165082297929
C         5.06728160372476   14.58608171794631    8.37523402445322
H         5.46951711235975   15.34205917290662    9.03211818292952
C         4.88966334991698   13.30833568361509    8.88429204514592
C         5.21154942777181   12.98170627240459   10.32070490362641
C         5.13037610175831   11.17465077403843   11.87889807134949
H         4.20676106173465   11.36318212901692   12.44898956243930
H         5.94691949377447   11.68248860812607   12.40625643293280
C         5.40064579253696    9.67648946229944   11.75013863073842
H         5.16664706607976    9.14250327311071   12.67789570268561
H         6.46338800078775    9.53984154404077   11.53498203701926
C         5.41661414508997    8.06104902090960    9.97250666656400
H         4.78580320558954    7.50374926770699    9.26830706904769
H         5.81826659372749    7.35078142097226   10.70726457214408
C         6.53277397805997    8.72258411404942    9.19517655685378
C         7.76859144156645    8.11839715047934    9.02029656660729
H         7.95648418884673    7.14457550809224    9.44462936582555
C         8.74992602705538    8.77838601985790    8.29678356908244
H         9.71729231026173    8.32582539798060    8.14642851853713
C         8.46119842534593   10.03137676866333    7.78086049250725
H         9.19388720555116   10.58571036730079    7.21790703915840
C         7.20285123403715   10.56808514038507    7.99781444334032
H         6.94556582968130   11.54279832033757    7.60369931106668
C         3.28379065106848    8.69617978989023   11.04247222347347
H         3.30884305029904    8.18310499312028   12.01261506339355
H         2.87826106234692    7.99721269243292   10.29884847235559
C         2.35797981361222    9.88896321785793   11.09425250196414
C         1.34452933111835    9.99128854828401   12.03645150018231
H         1.22137300707436    9.22096678322720   12.78154939415958
C         0.49895921609919   11.08870957432252   12.00603089064073
H        -0.29387899108416   11.18980950487177   12.73023154814327
C         0.69698814312996   12.05003718603432   11.02746831488076
H         0.06289762462416   12.91868958004189   10.96183309382357
C         1.73297277999277   11.87848909723455   10.12529863440872
H         1.91416019016056   12.60872434137910    9.34689529507088

