48
CSD_code = FIZQIP | q = 1 | S = 0 | Stoichiometry = C20H20ClMnN5O(1+) | MND = 6
Mn        4.38816311376441   10.74194318033518    9.06327177264513
Cl        3.48741436278206    9.52234529131490    7.58345381922078
O         5.65561487918318   13.92194263911334   11.02504138236545
N         4.38329622519873   12.44903989739522    8.06328025280703
N         5.04399465338707   11.79818850300569   10.39062027470784
N         4.66773685245821    9.22918179565757   10.41696930748297
N         6.24659980165032   10.11736123601515    8.46305270657987
N         2.59093152400846   10.93457977681451    9.99264244283403
C         4.01533490642648   12.70418772058371    6.80529463125015
H         3.61654621711642   11.87091362427573    6.24013258936808
C         4.12351918723049   13.96037825886906    6.23019691242798
H         3.80723211080715   14.10620184881927    5.21000748632942
C         4.63479698994206   15.01132908365875    6.97792577157986
H         4.72862373770350   15.99884092208768    6.55481964936291
C         5.01979999584715   14.75844668835219    8.28526687118709
H         5.42278211218640   15.52308118284486    8.93103545860675
C         4.88267985578851   13.47509655930404    8.78903458848018
C         5.25392682965817   13.12206372394751   10.19972522702145
C         5.18285107475520   11.25909631966532   11.72521408839387
H         4.25913581031067   11.44328295071771   12.29383369798943
H         6.00209977944112   11.75854267754785   12.25548515318593
C         5.44426386950745    9.75892095774346   11.56493880637922
H         6.50655762053814    9.62019797644856   11.34925664135828
H         5.20398208729078    9.21285337422286   12.48364865712694
C         5.45374474285916    8.20130191330245    9.72113646492067
H         4.79907782719245    7.66574649385362    9.02228708166378
H         5.88782528064388    7.47318605171063   10.41826322350757
C         6.52587089931439    8.87728916240229    8.90132169004125
C         7.71869172460226    8.24098962088632    8.59040524083200
H         7.90620242805336    7.24458340443649    8.95851644644260
C         8.65243420905742    8.89489590412264    7.80299842170633
H         9.58400925449071    8.41650443957769    7.54531687112570
C         8.36206484717593   10.17571123504699    7.35883099857419
H         9.05722310808176   10.72541005904735    6.74600368746631
C         7.15219127454605   10.74532973533866    7.71353004629582
H         6.89485026451411   11.74297181973404    7.38207945470464
C         3.33120103623458    8.77652029597634   10.81824520140222
H         3.34820371210641    8.25417105257009   11.78312358302405
H         2.95766266436603    8.07835941895047   10.05876845173768
C         2.36053107963915    9.93068274598678   10.85310076446130
C         1.25137627916133    9.92163089644594   11.68746305915140
H         1.09822236949284    9.09878183835994   12.36779603204184
C         0.34895605350861   10.97083103888117   11.62918074647359
H        -0.52043641869379   10.98274199393482   12.26718259365162
C         0.58827717036041   12.00047705413809   10.73216526761099
H        -0.08787037462008   12.83489412868435   10.64597038441691
C         1.72047012637857   11.94237531166840    9.93941888520859
H         1.93883684455269   12.72909819620493    9.22834721485034

