73
CSD_code = FIZRAI | q = 0 | S = 0 | Stoichiometry = C30H34N4O4Pt | MND = 4
Pt        8.59577103909981   -4.91489718873963    5.09779774653054
C         9.53293807798242   -4.06175251348356    3.60994470552649
N         9.61136153520335   -3.34212027107036    2.68382204499277
C         9.68457793967360   -2.65850157659102    1.52908892862565
C         9.88619096972955   -1.30911737506143    1.49531655780847
H         9.99340142858150   -0.74964714671107    2.41338402523830
C         9.94171672398675   -0.63888437483543    0.24932980399189
C        10.13823987156743    0.74138679886388    0.09607439440175
H        10.26879922163173    1.34640689193014    0.98097201228785
C        10.17482719741362    1.32408166419021   -1.14095740852093
H        10.34730542018170    2.38547536993016   -1.19702339961807
C        10.00674764072427    0.56530340648907   -2.32421855592904
C         9.81047431967335   -0.81488585008550   -2.17547634590829
H         9.66242712305754   -1.46851704323064   -3.01687822119522
C         9.78419083297583   -1.39995257138605   -0.92370521580622
O         9.58954955385487   -2.74344211282238   -0.87369061275449
C         9.52977320985441   -3.44214610630061    0.29386658225189
O         9.36041174205043   -4.63294986948397    0.24829670093491
N        10.03951389311404    1.14967297934823   -3.55282432318675
C        10.06243622345269    2.58576254303867   -3.72643069228857
H         9.48038337959669    3.06306047914028   -2.93490837682764
H         9.56798503096863    2.81682531166879   -4.67366684460730
C        11.48509946240241    3.14734356101579   -3.75057779560061
H        11.45858096372133    4.22468604706005   -3.89059119301031
H        12.05281400142520    2.70601094060569   -4.56622362799142
H        12.00139956811670    2.92659894134104   -2.82013756883990
C        10.02308903344454    0.36844396110128   -4.77115102369719
H        10.58885302995041   -0.55347869287794   -4.62130269783765
H        10.53929682371935    0.94372424369962   -5.54429483328542
C         8.60336219792984    0.04831005660394   -5.24071421567316
H         8.63695438309995   -0.53192449802932   -6.15876835713552
H         8.04985395170810    0.96511426732521   -5.43038419837278
H         8.06846156059521   -0.52140264955390   -4.48592437331279
C         9.46461190012831   -4.16450637436365    6.67788773470992
N         9.55803762775654   -3.43156171728683    7.59226049679010
C         9.62446998907122   -2.70886579997742    8.72385957955056
C        10.38339737825530   -0.83150316689241   10.02143159052486
C        10.35494153771915   -1.55862282541098    8.80736492004490
H        10.90768155673785   -1.19949279142334    7.95122620484220
C        11.10457494300056    0.35492264218008   10.22135553921507
H        11.68462031060438    0.75165506724088    9.40142459018134
C        11.07789094929510    1.01258308423537   11.42025228768700
H        11.63885539120803    1.92724047233325   11.51034785517756
C        10.32382015957943    0.52750989722005   12.51592467279086
C         9.60857797748882   -0.66294344333150   12.32316905406317
H         9.02506494660759   -1.11526491683431   13.10554025421495
C         9.63665024313752   -1.32213019976420   11.10889426941037
O         8.91816163753979   -2.47044324906422   11.01173597572666
C         8.86291805438293   -3.21869928191939    9.87408605657305
O         8.20893483157763   -4.22884472702142    9.87747228154014
N        10.29116609168413    1.19017302813409   13.70378369335034
C         9.38163693791549    0.81287433566864   14.76464458723732
H         8.44576112991404    0.45379642807029   14.33139487985063
H         9.14866832386950    1.71219248982316   15.34112648208575
C         9.97398515477653   -0.24538581001882   15.69598170967980
H         9.26124465869312   -0.49258246014359   16.47800003849415
H        10.88463189115568    0.12422370834803   16.16170136570970
H        10.21689060331079   -1.14986164830509   15.14528477068501
C        11.15916919906587    2.31205920822491   13.98814573613452
H        12.12563178676424    2.16249973536414   13.50162323127915
H        11.34029687160167    2.32990343694854   15.06612471088537
C        10.54984070848075    3.64749932605742   13.55752908715357
H        11.22992077655484    4.46120418472920   13.79485289033736
H         9.60954560105285    3.82001909227538   14.07559787988438
H        10.35367626525689    3.65414655753821   12.48867624896432
C         7.32151774631518   -5.79767107557558    6.44433266821028
H         7.32614060390467   -5.38577044823217    7.45635092217872
H         7.69060869387010   -6.83272339506336    6.52617024609021
H         6.27869818730342   -5.85733573771994    6.12921193015548
C         7.30259244725842   -5.51803117599995    3.61181202140286
H         7.75055974776630   -5.60670068536470    2.61836134724635
H         6.48353147430690   -4.79121680773333    3.52191654784185
H         6.84128831465310   -6.48183258000631    3.83920002094643

