124
CSD_code = FIZSAJ | q = 0 | S = 0 | Stoichiometry = C64H54ClOOsP3 | MND = 6
Os       16.21044827809198    6.25921816768874    4.23267080877373
Cl       18.32562533815549    7.26522005012123    4.70202830054912
P        17.19023372806971    4.74823663616692    2.70059897240382
P        15.55623553419421    8.32483422019931    5.21207556078942
P        16.28672000683754    4.88954349232316    6.30057159537872
C        14.53273971987661    5.52554159666354    3.92279191943227
O        13.49491664903909    5.04595466541288    3.72278403592070
C        16.12711044149241    7.34653071859834    2.45354385935244
C        15.20856695193997    7.32593921113214    1.48451016767924
C        15.19905439453387    8.16055613559956    0.28863129927071
C        14.09730537933651    8.10175073533792   -0.56635718585310
C        14.02379967178023    8.88863004704521   -1.69879057659954
C        15.05061612787928    9.76405566085251   -2.02457915319207
C        16.15671826143810    9.81844443978665   -1.18255602580973
C        16.23399154935655    9.03472676980477   -0.05097722745520
C        14.98673679149749   10.62495181870021   -3.25033639194914
C        18.39310631656672    5.28029538850086    1.42360316534407
C        18.64949113300649    4.40105572781412    0.37174483441157
C        19.57097802504924    4.72857622992089   -0.60275899115663
C        20.25955945980257    5.92989764795610   -0.53420461975606
C        20.03647956545197    6.78802880217186    0.52695590737738
C        19.11367598868209    6.46323728122514    1.50708207059858
C        15.89207743941006    3.96347841390070    1.69488335281427
C        15.10901212952352    2.97424301025678    2.28516171987229
C        14.04687719439874    2.41968514107307    1.59716214757698
C        13.74250359317439    2.86176897424523    0.31967534835379
C        14.50140830164382    3.86316156999146   -0.26292129367798
C        15.57031665297924    4.41651199389887    0.41936968752828
C        18.21496457648480    3.34819349813256    3.28741383784286
C        19.23056974478870    3.70543094104861    4.17126282293385
C        20.09414533616859    2.74970564114928    4.67040113893778
C        19.95760479357883    1.42762625656182    4.27703579465397
C        18.96794912236296    1.07330049027827    3.37503258976112
C        18.09677135284003    2.02666545974829    2.87654513500346
C        16.00058775244255    9.76106985188973    4.15716219222362
C        15.14044903674412   10.26260311520953    3.18551547224167
C        15.55433791312165   11.27822807881767    2.34291675012881
C        16.82942507306867   11.80528557311823    2.45741971976338
C        17.68767911600825   11.31832900460410    3.42875204838958
C        17.27867538224120   10.30375155410327    4.27430927039099
C        16.24560796644387    8.93240387361975    6.79369152059463
C        16.05013981935951   10.26275231076618    7.16574232078169
C        16.55934655827186   10.72959056402448    8.36195901600160
C        17.27561927094764    9.88307181338017    9.19493748053718
C        17.49136624996266    8.56899663750918    8.82046866443476
C        16.97817992781483    8.09997457892448    7.62458939775029
C        13.76140417722358    8.62139337494454    5.42939871016118
C        12.94093667573605    8.23993280969401    4.36870223320902
C        11.57377871107659    8.42988156410783    4.43149071595930
C        11.00504451098282    8.99493326742190    5.56181525776274
C        11.81071508528582    9.35293598961165    6.62861377248659
C        13.18132070798851    9.16337027116705    6.56902122717377
C        17.73593559129515    4.37961035115217    7.30542154855271
C        17.63000697054736    3.31195829135758    8.19869550247342
C        18.71648149775835    2.92843303567182    8.95961539380694
C        19.92262756893146    3.60358283061768    8.84590476170378
C        20.03115978748378    4.67018804952146    7.97270674824097
C        18.94400945400618    5.05902448967950    7.20729266555408
C        15.15212930917926    5.48447403037205    7.62125943410255
C        15.48865217545541    5.50828003979039    8.97104657472662
C        14.58675309306710    5.97911285216570    9.90791954528272
C        13.33483427334111    6.42119438684018    9.51647439096407
C        12.99703999397577    6.41659872919444    8.17423830291418
C        13.90703171864388    5.97184062494076    7.23310326056153
C        15.56764433062300    3.22382842422852    5.99894063765913
C        16.42340236921594    2.16946682158287    5.68377235636307
C        15.91872568668946    0.91933210121418    5.37805577550609
C        14.55065305907540    0.70283636097490    5.37328218123896
C        13.69379953606602    1.74371340112062    5.68775026249817
C        14.19554325573680    2.99527415392734    5.99857113364801
H        16.94735003464875    8.05251151737918    2.31270125260172
H        14.35594064290812    6.65561875916930    1.55504398839999
H        13.28540080579879    7.42652952210495   -0.33087284010214
H        13.15463228261694    8.82329526325350   -2.33953866757622
H        16.97020571767402   10.48982727776265   -1.42232689277083
H        17.11098913546880    9.10260457686911    0.57481541098207
H        14.02669780359028   10.52076746627476   -3.75028188973650
H        15.77343717009544   10.34556731636878   -3.95140909004935
H        15.13236592096832   11.67279516632534   -2.98976117713112
H        18.12227287775443    3.45825216850251    0.31808066143078
H        19.75589515813249    4.04372830532813   -1.41794462721224
H        20.97568082686857    6.18699438751262   -1.30108328783856
H        20.58528017532191    7.71592950116720    0.59776351927879
H        18.97314201651877    7.12620230435492    2.34558720427365
H        15.33206421104807    2.65020176880973    3.29225916400376
H        13.44953803435182    1.65061398428629    2.06492362018632
H        12.90810894767185    2.43356116121560   -0.21643123611083
H        14.25699219331074    4.22308401378695   -1.25192220386367
H        16.15064014953959    5.20629975132137   -0.03584040294389
H        19.33329418975812    4.74311176384297    4.45971515173351
H        20.86964628110220    3.03281889287924    5.36729849922512
H        20.62618975244652    0.67471935738526    4.66854228675974
H        18.87234419693305    0.04490279101891    3.05637239996926
H        17.32542298891228    1.73695455747802    2.17753231750278
H        14.14478557290421    9.86100159288463    3.07749585749191
H        14.87931544546969   11.64963975361228    1.58585147891941
H        17.15325604691252   12.59093110364126    1.79050530721341
H        18.68449973353440   11.72402178980162    3.52605327034241
H        17.96183066926390    9.92059310963702    5.01888169567454
H        15.50727154367648   10.92994961555071    6.50906371047103
H        16.40210674336767   11.76050130137181    8.64511206393050
H        17.67387568278273   10.25438190774440   10.12785988541484
H        18.06491755124981    7.90770337056829    9.45364589199702
H        17.17326043105858    7.08102138058896    7.32125030059622
H        13.38936156961509    7.77884318941183    3.49831804308933
H        10.95073328739916    8.13194493428807    3.60098044322980
H         9.93659114798571    9.14479151253304    5.61474744298615
H        11.37113682204672    9.77850739803577    7.51953496663616
H        13.78945586825325    9.42697182037468    7.42172548218645
H        16.69168578039783    2.78290982518492    8.29708013959727
H        18.62237282237903    2.09980041238256    9.64691107850343
H        20.77102642155673    3.29719750564235    9.44055481768445
H        20.96485544547442    5.20608707348293    7.88207302554219
H        19.04620169027751    5.89355514179040    6.52889249702123
H        16.45991971582615    5.16969269408801    9.30013553420208
H        14.86530204973269    5.99765168353676   10.95166824314906
H        12.62978115605321    6.77721340161154   10.25297570364241
H        12.02796229131169    6.76995740534003    7.85436013892419
H        13.65227336315093    6.01460875889514    6.18231042818654
H        17.49235843698868    2.32385416340474    5.69101790863716
H        16.59966881481216    0.11539807907927    5.13928876017943
H        14.15580271267210   -0.27259233960275    5.12986264044407
H        12.62553615782137    1.58356838602209    5.69245726324259
H        13.50947035722949    3.78855241417783    6.25155196739716

