99
CSD_code = FIZTOZ | q = 1 | S = 0 | Stoichiometry = C46H39N6O4P2RuS(1+) | MND = 6
C         9.93285044270166    8.93048893304967   13.66766628348966
C        13.09485353067101    7.64924556884227   14.45126747963939
H        14.16199435743748    7.70547942445697   14.35119765221298
C        12.33729964654495    6.75763502478021   15.20908579364626
H        12.70045840628350    5.96481573186156   15.82821191497360
C        11.02399179847299    7.11204971767250   14.99317853669080
H        10.10582281769394    6.71131067087368   15.36833713664920
C        10.98597464690070   12.24121085470127   14.16138406924649
H        11.69219361160616   13.02721378375634   13.97577785726073
C         9.78298595118472   12.30608697023447   14.86464114148846
H         9.36715255114125   13.16342223460054   15.35063443300574
C         9.24528779523287   11.04192773011888   14.79475061610816
H         8.33749485416386   10.62556931321737   15.18004398890717
C        10.29672677281312    9.53149228495976   10.24792443187566
H        10.86803265626029    9.98324429038764    9.45869457235513
C         9.04111671962150    8.91934169523377   10.19754189381188
H         8.42239848882581    8.78536221123707    9.33562617238167
C         8.76513295648964    8.53233932285693   11.48678476197407
H         7.92016593038875    8.04003385085666   11.91977840841954
C        14.25977250362133    8.92470971562390    9.51148500305081
C        13.89603577697787   10.16187539943712    9.00228928924728
H        13.24102327009869   10.80477053458745    9.61686669962643
C        14.38506038557562   10.59842649956154    7.78617428410036
H        14.10078017423076   11.56388079593559    7.39780447457761
C        15.25199696016281    9.78218792240788    7.07391876592358
H        15.64242454215080   10.11500456884966    6.12456231175860
C        15.62463291613721    8.54663849447665    7.58020840386423
H        16.30389226206389    7.91893977092326    7.02396625264337
C        15.13143490419894    8.10647184276341    8.79553470396688
H        15.41583466397125    7.14023089661202    9.18668892117081
C        12.22903553571711    7.19545451441352   10.48166034778682
C        11.86790222722007    7.12967855056347    9.13809929571679
H        12.39073635814440    7.72530282388790    8.40420562124485
C        10.83836635720658    6.29658080120037    8.73610442844561
H        10.57498485226002    6.24561095333514    7.69084321407044
C        10.14218280159605    5.54218765879935    9.66581518246058
H         9.32876573772148    4.90854291040569    9.34972740518995
C        10.49659752883001    5.59774944453776   11.00448188993225
H         9.95866446372222    5.01936752462379   11.73925746457208
C        11.53960444256133    6.41055177443669   11.40758839059116
H        11.83015660597085    6.41517962133565   12.44782993129021
C        14.80373846068596    7.25171593028833   11.75058805535808
C        15.96631773062481    7.85803486215979   12.22259554429157
H        16.04854798850314    8.93568340781645   12.18045844148569
C        17.00141214933599    7.09078371908507   12.72164424631500
H        17.90375847745597    7.56717328794128   13.07481055458337
C        16.88220569324436    5.70978341302621   12.76002021441499
H        17.68725557898932    5.10832360276910   13.15258038784584
C        15.73205137147909    5.10249582657599   12.28417983910016
H        15.64189648149886    4.02721703089611   12.30152629426190
C        14.69398086396052    5.86486809787785   11.77534145492491
H        13.81178643589945    5.37573308768685   11.39090506265819
C        16.04173316680295   11.30626476524323   12.71488021003884
C        16.15421773805698   11.28281596943448   11.32942066540881
H        15.27908747049255   11.05243053981930   10.73943169677364
C        17.36675904030404   11.55908612831570   10.72423196199415
H        17.44715316086449   11.53242625627276    9.64801436984215
C        18.46927322482269   11.87426860643126   11.50141561744828
H        19.41764955250986   12.08822158262210   11.03335688996292
C        18.35148704284591   11.93238811615587   12.88184604323779
H        19.20559771893034   12.19939475950209   13.48543535576474
C        17.14119216721489   11.66031349076360   13.49296274088661
H        17.05050714742166   11.72829423562415   14.56719369547704
C        14.13242440918006   12.83603955979503   13.79513010580696
C        13.62615104496684   13.60475395674091   12.74832021207671
H        13.29522876469409   13.10288547971985   11.84139421319603
C        13.51841193465771   14.97626327367851   12.88432772676151
H        13.12305156341448   15.56975733009100   12.07427734220447
C        13.91932389337260   15.58616449681017   14.06388352560350
H        13.83734903281546   16.65663690543575   14.17170661971688
C        14.42429827969549   14.82356632748992   15.10434375012887
H        14.73493822487287   15.29984508643366   16.02176597378191
C        14.54095777364194   13.45012994534380   14.97426587937937
H        14.93873037981257   12.86205673387600   15.78896214977488
C        14.67321259586669   10.31851957036016   15.09807189532187
C        15.75728026562478    9.49349507036716   15.38136558374171
H        16.52969152595007    9.34119052797397   14.64195474959983
C        15.84790595273323    8.86830026241711   16.61341841181313
H        16.69690044003976    8.23816988552390   16.83138298473186
C        14.85449895379874    9.04590821983299   17.56207395821974
H        14.92900644360311    8.55653190066779   18.52058933718994
C        13.76305694146888    9.85331523772421   17.27995206216476
H        12.98564109423561    9.99065229568588   18.01595819899793
C        13.66969923866640   10.48231341012660   16.05315880294732
H        12.82149521888619   11.11927349918521   15.83256029497895
N        12.29746599815521    8.49502691903416   13.81331353873080
N        11.03675098997616    8.15367412553886   14.14328446217227
N        11.17714205377035   11.01454084079743   13.69958977330653
N        10.10424354496064   10.29112209044339   14.08375181544972
N        10.74848411222755    9.51061724809084   11.48507580553154
N         9.82109066787063    8.90232356297692   12.24014854739973
O        12.68766891616763   11.32503295474080   11.08421491975580
O         8.36504515454713    6.86493391907669   13.89422488245177
O         7.31143552280396    9.07748013786034   13.88383562226545
O         8.59449381456297    8.34535838115230   15.83522722704524
P        13.51794884782427    8.34753852351594   11.07045865780819
P        14.39968450528674   11.06333014045526   13.46663802062729
S         8.29008313848009    8.19135989877541   14.44124314154498
Ru       12.53478089485351   10.06436293354617   12.39305104033399

