104
CSD_code = FIZTUF | q = 1 | S = 0 | Stoichiometry = C48H42N7O3P2RuS(1+) | MND = 6
Ru       10.87310773266633    4.23936521858798    4.60614575004254
S        15.00413751525588    4.22237642797774    1.71643177510082
P         8.92433334373392    3.15485632889372    3.73842277253247
P         9.98739554228042    6.26414283381748    5.47566399828589
O        15.25052211408723    5.63457282505936    1.63240486255801
O        15.89544931752206    3.45346824053217    2.53800568864147
N        11.16001961807079    5.09245522145087    2.74487437948554
N        12.37498606732908    4.96372295113863    2.18198834709544
N        12.99612772121834    2.87928972130696    3.07881638946531
N        13.71916520053031    4.84151105403736    4.10426705082753
N        11.98450308465854    2.61677507557420    3.92115284596093
C        11.95200865614444    1.30552538257417    4.07686359630423
H        11.22865112967005    0.83272498014380    4.71332726849804
N        10.81978800572046    3.41707324209390    6.32821003501436
N        12.79870301439779    4.90413146630983    5.08394740143548
C         6.40963747919945    2.36681356548437    4.78018778222685
H         5.95865446007234    3.01976597748194    4.04858816306902
C        10.13691039187848    7.64506749742020    4.30039959844810
C        13.60353198357722    1.74435101480386    2.68406029413499
H        14.43356833050895    1.76467529823360    2.01015159205670
C        13.40649855203763    4.23305196854438    2.84440666015275
C         9.06045415250451    8.37757013699903    3.81325351312667
H         8.05972713483724    8.18022458134227    4.16902054927858
C        10.65282577444288    6.19952397824512    8.14006100655473
H        10.01768547000018    5.32281490413183    8.12528830306200
C         8.32986011552368    6.40162406028311    6.22762792067269
C        11.41772070869450    7.90715282540991    3.80994829625266
H        12.25926380360438    7.32708184544882    4.17040215580213
C        14.76640900715631    5.59624280457494    5.86687591465951
H        15.51465456635683    5.96920304768594    6.53370313800802
C         7.59598382295916    5.24653916306995    6.46332013526999
H         8.00083735990066    4.29520584827295    6.13866075811147
C        12.95179528789492    0.70740100507149    3.30825509448379
H        13.16634889528053   -0.33686820047698    3.22516894707683
C         9.18278303365476    0.48830432144160    2.77715432485577
H         8.59519503520871    0.16610477642960    3.62460941979281
C        11.62206728669523    8.89832148730800    2.86983607175624
H        12.61777152295513    9.09214656944021    2.50091122778845
C         7.79389664202286    2.24755316835496    4.85574040385027
C         9.44465761372245    1.83896743951791    2.57623644849541
C         7.85167189267117    7.62883131602458    6.68140846866038
H         8.44340631881684    8.52346025152451    6.54604592007915
C        11.23967762191950    6.61651298595271    9.31890848928823
H        11.07268115047590    6.06274819278814   10.23102166308560
C         6.62453917625245    7.69315774898403    7.31471252299666
H         6.24903367988431    8.64521932020950    7.65771475314788
C         7.13320690351714    3.45482358865089    1.58442482529600
H         7.39937414078821    2.44694027111458    1.30219687100296
C        11.18540695370883    6.12429808825534    0.76708884737716
H        10.86251244580035    6.68445596578877   -0.08462528472833
C         8.35028709800243    1.40665911178755    5.81858089358638
H         9.42592147932892    1.31662086608530    5.88374662281638
C        12.03154164866615    7.75506238134001    9.33378932774631
H        12.48927824446720    8.08324103501942   10.25398365212334
C        11.16684767699361    2.32433125647576    8.64409012088194
H        11.76984428715584    2.97048359051066    9.28243699395535
H        11.66823107323609    1.36137445944822    8.54372705728529
H        10.19164890386071    2.17286513281681    9.10837672623610
C         9.26942356852745    9.36923311551184    2.86942942876533
H         8.42991001450465    9.93848338747125    2.49998976198688
C        10.85546028997632    6.91212200324066    6.95698164056738
C         7.54089145039622    0.69235831445494    6.68155488779255
H         7.98212327308389    0.03557830336794    7.41671395232980
C         5.88048787928417    6.54054178368396    7.51921198058929
H         4.92355600670364    6.59957590559177    8.01434424967435
C        14.92222082439445    5.25849367102915    4.54357669280629
H        15.77207437172248    5.27804042038418    3.89449094618759
C        11.63442431565791    8.06190202556768    6.98232186140087
H        11.78351797462088    8.64596843528812    6.08689730473187
C         7.72742882466195    4.05406007935285    2.69209165844733
C         7.35736261993112    5.34763637960432    3.04672231296042
H         7.82059073261943    5.80368709967484    3.91200633138024
C         9.66939212889846   -0.45319879144716    1.88532044062964
H         9.45566823551212   -1.49882374811578    2.04774432782515
C        13.42415385836764    5.34635689539408    6.16143727719028
H        12.91162510452451    5.47202999072961    7.09528083385081
C        12.42682166855699    5.57643668309911    0.98423284069771
H        13.32068158608939    5.57228186506121    0.39725707224231
C        12.21980978884112    8.47619377843632    8.16799455986666
H        12.82133616335936    9.37220051080658    8.17830803437964
C        10.67553514283178    1.28533805434739    0.57654758581567
H        11.25736812762081    1.60191141082674   -0.27543148847033
C        10.42957458828097    5.79615546772544    1.89349312740907
H         9.40555795846879    6.04125697233160    2.09878176351785
C        10.18004217515812    2.22794513075704    1.45605144591953
H        10.34729293121559    3.27819563774817    1.26159476075659
C         5.83226389257401    5.43923394136854    1.20133540588674
H         5.09819940257515    5.97539851618515    0.62014659286383
C         6.41414487885123    6.03740876650286    2.30763737800523
H         6.13222826092327    7.03989436715913    2.59265702580092
C         6.37144186437879    5.31429213268925    7.10254499172385
H         5.80606304468991    4.41074152016675    7.27534607595281
C         6.16277524490515    0.81364318313478    6.59802859580440
H         5.52939251628395    0.25625466702925    7.27060960798087
C        10.42757546449261   -0.06107598010472    0.79570392650444
H        10.81659980212798   -0.79960137001325    0.11243884138299
C        10.54453902568760    9.63242093536149    2.39838888535501
H        10.70031259762133   10.40629552812114    1.66307133130624
C         5.60286037722759    1.65149544761831    5.64852431568474
H         4.53001711622927    1.74863603636395    5.57942061070216
C         6.19340188244487    4.15033372922721    0.84397109620762
H         5.73867837333118    3.68063618799026   -0.01477040189874
C        11.00324973972235    2.92874451072309    7.35717591353886
O        14.46987772285570    3.57617148194603    0.55080586521235

