29
CSD_code = FLVPDA | q = 0 | S = 0 | Stoichiometry = C10H14O4Pd | MND = 4
Pd        0.00005513685445   -0.00003965822168    0.00004195118087
O        -1.87585022546363   -0.04939193507860    0.71920755153890
O         0.12743729365274   -2.00531801943102    0.04035001848999
C        -0.79184741099265   -2.78330240413943    0.42450660757130
C        -2.05628449814392   -2.41530572118712    0.89048741688378
C        -2.51464666656283   -1.10097833468384    1.00878399896294
C        -0.47917154717381   -4.26388895247413    0.37118362781920
C        -3.92053363763390   -0.90456280283385    1.53576874335291
H        -2.73002523255617   -3.20624803365888    1.18150850443815
H        -0.54831944128368   -4.69497094011285    1.36739356477644
H         0.52569031706643   -4.40694177505780   -0.01640244002215
H        -1.19287500836619   -4.77316059015715   -0.27219377640950
H        -4.01553414869323   -1.35102557912749    2.52266340008702
H        -4.13876336432854    0.15795673072841    1.59495325023828
H        -4.63635877171262   -1.38483423208156    0.87270060609982
O         1.87604076347336    0.04936572118625   -0.71898281249108
O        -0.12728012873549    2.00524673308458   -0.04000926763851
C         2.51472577300278    1.10097293720415   -1.00871311270389
C         0.79196569393727    2.78326267651787   -0.42420599390911
C         2.05636329361949    2.41529611777718   -0.89029826822281
C         3.92052829480457    0.90465463494709   -1.53595211845628
C         0.47910551925850    4.26381880484914   -0.37110718795503
H         2.73005447569138    3.20625116576643   -1.18139762822000
H         4.01527492567208    1.35113803400607   -2.52286148702766
H         4.13882063719336   -0.15784759933655   -1.59520412538656
H         4.63646039541091    1.38498035171723   -0.87303472798740
H         0.54513984992629    4.69397385900676   -1.36793653612712
H        -0.52470768423981    4.40695693047824    0.01914505174608
H         1.19453539632279    4.77394188031269    0.26960518937141

