29
CSD_code = FMBCNI | q = 0 | S = 0 | Stoichiometry = C10H12B2F2NiO2 | MND = 8
B         0.54632573015922    1.44958402764994    3.29851183753730
C         0.99082074540752    1.54000536602331    6.16499410396960
C        -0.76824430716344    0.69203277163975    3.69163408464889
C        -2.05451421825401    1.45515238121653    3.86451972740602
C         1.91834577260154    0.69204718025417    3.27813366032928
C         3.19700107098861    1.45515388439521    3.05578462698915
F         0.50006855134209    2.74900439645032    2.99747192275529
H        -1.86594596037687    2.52491316151945    3.89345973756951
H        -2.57540641726667    1.16391932962628    4.77536980291582
H        -2.71644718832060    1.24281919649223    3.02323836089753
H         3.57409924519389    1.24379866136101    2.05378039960336
H         3.96849007226577    1.16313482538177    3.76654266035877
H         3.02618371300973    2.52471691025710    3.14141425246533
Ni        0.84785208287054    0.00001060989803    5.25351027022299
O         1.10034598551090    2.45806092515447    6.83179123487306
C        -0.76824499257125   -0.69201129841173    3.69164488319146
C         1.91832580670970   -0.69206873114462    3.27810269603033
B         0.54630481727806   -1.44957941025371    3.29846803410843
C         0.99133386317857   -1.54003700502991    6.16481879381061
C        -2.05450504752228   -1.45514566491306    3.86457707896042
C         3.19699177049353   -1.45519628866002    3.05584858968806
F         0.50003362329837   -2.74900971087047    2.99746611497616
O         1.10028179284151   -2.45796835169298    6.83196343522383
H        -1.86593072300136   -2.52490946599694    3.89352445003254
H        -2.57537316096806   -1.16390455876305    4.77544107300755
H        -2.71646444673392   -1.24282574241435    3.02331087306036
H         3.57443905180624   -1.24338610233005    2.05379569657290
H         3.96838025425913   -1.16334835698000    3.76711799979732
H         3.02595251296357   -2.52496293985980    3.14106359899957

