50
CSD_code = FMCPRE | q = 0 | S = 0 | Stoichiometry = C24H21NO2PRe | MND = 8
C         1.72186241145109    0.74995215929916    3.22039898101388
C         1.34923404499245    0.74343982374349    1.84567962364873
C         0.63993472809590    1.95580464621287    1.58282374804698
C         0.68427483391527    2.73926563415230    2.74994784324674
C         1.33792546570555    1.98002607277882    3.76598844159375
C         5.13312909917682    3.72118642042575    4.35450013619330
C         5.81790742386384    4.66313423846604    5.11747677960576
C         6.74620390770381    4.24697800847382    6.05292389575271
C         6.99909946514141    2.89480701197225    6.22869424820579
C         6.32557579446312    1.95651852968681    5.46469301755192
C         5.39419611463709    2.36782579219167    4.52737332452672
C         4.83658605869373    5.53728562953794    2.21906360575214
C         4.81113483759448    6.88485424409027    2.55755217242414
C         5.57753884741469    7.78778846604969    1.84072064513336
C         6.37341383456486    7.35182100406364    0.79513827946082
C         6.40479362003019    6.00679231184572    0.45991013170973
C         5.63748494585154    5.10084545417460    1.16690363020874
C         2.67504026376472    5.18965542284264    4.06823113814634
C         1.78504764808865    5.99319102955065    3.35603126110179
C         0.78520083850072    6.67256931591393    4.02586003319311
C         0.65976842845094    6.54638365020026    5.40145117539185
C         1.53294969096942    5.73535087922561    6.10720082537510
C         2.53848226624907    5.05210457486981    5.44494427234769
H         3.30371952943200    3.73848729646261   -0.70686136367996
H         2.19501373105275   -0.06309537246015    3.74685680582198
H         1.37365989283384   -0.11993614380177    1.19655582011604
H         1.44042503605521    2.27833968712765    4.79898172403079
H         0.08650331891375    2.18079626233485    0.68276368051189
H         0.13517297826506    3.65540621080485    2.91606510552679
H         5.62142891517812    5.71648945967396    4.97297696681368
H         7.27668182653636    4.97744657337480    6.64586163820604
H         4.86682271430653    1.64548941087711    3.91667529986490
H         7.72621183152568    2.57458770601188    6.96002000431897
H         6.52836800997836    0.90433649005540    5.59680742393180
H         4.18639690776628    7.23312827825755    3.36852403557767
H         5.55010529353138    8.83621668827228    2.09933645511236
H         6.96615342987969    8.06180726133521    0.23788702487128
H         5.63570072171401    4.04807806226304    0.91174302573357
H         7.02340015569053    5.66659588318568   -0.35654782577799
H         1.87642163478177    6.06305009548410    2.28008775957846
H         0.09600578392701    7.29471413758158    3.47417941701990
H        -0.12533575653114    7.07410623818413    5.92256884183161
H         3.21482894148301    4.41134087956935    5.99420612664778
H         1.42766543679259    5.62855332063011    7.17708753907117
Re        2.89572440210556    2.51367967377434    1.81778369707937
P         3.90640456093749    4.25527760580864    3.11902967473109
O         1.81551862091782    4.63873318054720    0.28387091909164
O         5.35557011268943    1.26760785130642    0.82889062586433
N         4.37138810599423    1.79864333894075    1.21728360536701
C         2.69265929490261    3.81733960464147    0.22645876310329

