8
CSD_code = FMHGIC | q = 0 | S = 0 | Stoichiometry = C2F3HgNO | MND = 2
Hg       -0.13556488928536    2.93786063735102    5.38828128522933
F         0.43192235872193    0.35464532045525    3.83827395554495
F         1.30447374172517    0.18623206528623    5.79637991467690
F         2.30088511157241    1.32666582103508    4.26964245009096
O        -2.55589441417334    6.37475188381096    6.35075279718528
N        -1.48989605824611    4.43216098807790    5.57391551146757
C         1.08904349829918    1.05173845604304    4.78798510869625
C        -2.00386934861396    5.42444482794024    5.99426897710914

