41
CSD_code = FMNBCU | q = 0 | S = 0 | Stoichiometry = C12H18BCuF2N4O3 | MND = 5
Cu        3.34426071318435    1.45125082570016    6.76191644986532
F         5.08160967469956    2.18046625259050    9.10513395949904
F         4.11396292154410    2.76224741729607   11.07592172467098
O         6.27580499792288    1.46302805583669    6.59001461844472
O         3.08040844246119    3.44638284206581    9.13649429507851
O         3.11344075490745    1.09227884148581    9.84747994316828
N         2.70629432148134    3.19196781787876    7.87743233497818
N         1.97027231031251    2.49514164274874    5.49472214815988
N         2.00852797272410   -0.15464671295312    6.29415930032607
N         2.74844185993633    0.59551906596701    8.65994850015632
C         5.14326510534927    1.43589006470351    6.58967135362411
C         1.38839069194548    5.26031153897381    7.92050458806219
C         1.91211286804881    4.00925138737305    7.28268272135513
C         1.52584512436791    3.61221719819096    5.93201266557141
C         0.61708048736247    4.49382861416288    5.12669851234333
C         1.61435892753721    1.98194338625591    4.20393732529601
C         2.22418491698988    0.59826940368404    3.98587181794359
C         1.65140355714424   -0.45104470932682    4.93720030332142
C         0.73275790309589   -2.07455768570018    7.10182844312263
C         1.59869230028984   -0.86178177173938    7.27835869076109
C         1.97835738430628   -0.43291896456009    8.62112593746083
C         1.47413026755710   -1.13182291893477    9.84730456123591
B         3.89501976470127    2.37184079608459    9.79496772392152
H         1.74540198697488    6.14377755058053    7.39263318061920
H         1.75498043914674    5.29506359088800    8.94404998209724
H         0.29960005443138    5.26907498631660    7.93216673878092
H        -0.33909688955534    3.99176473250398    4.97303258024653
H         1.05512673168755    4.66828516281435    4.14378137767538
H         0.43791367574914    5.44826361748040    5.60636640035440
H         1.97371604699747    2.65830923985472    3.41535422611379
H         0.52117668023213    1.92328190045588    4.10584228059734
H         3.30046788207669    0.66338283847005    4.14756927945396
H         2.03682441290744    0.28523739563527    2.95706560538233
H         0.55793084168486   -0.48711763783312    4.83223607653460
H         2.03659940713452   -1.43986652450167    4.65019644439257
H         1.17124170573331   -2.73108920993502    6.35017431459071
H         0.60974246859928   -2.62899122699387    8.02431858046194
H        -0.25067245003535   -1.77304419328112    6.73837678912057
H         1.80245458040904   -0.56578968402322   10.71624838411325
H         0.38698233074754   -1.18968862511539    9.84869819572514
H         1.88388682721213   -2.13901630110134    9.91480164537335

