51
CSD_code = FMTPHG | q = 0 | S = 0 | Stoichiometry = C16F24HgN2S8 | MND = 2
Hg        3.15786465863412    3.71463873494429   -0.00125717288602
S         4.31855994582962    6.18722281211317   -2.53215681886309
S         3.70429271310378    9.49713525136493   -1.37536678028820
S         2.19489149518337    9.15931800579160    1.74855540240319
S         1.95656201687595    5.51048449520745    2.23986397710229
F         5.77943637080892    4.75116003855601   -0.86419596102706
F         6.46928841645022    6.76898979828262   -1.11088811074509
F         6.79235323061933    5.32872132875483   -2.67712631749384
F         2.06864651078889   10.75195821041428   -2.98291438645241
F         1.80665853474597    8.61513656993579   -2.97647151190532
F         1.08340414846211    9.78390496803797   -1.33352544889477
F        -0.03453096370074    8.01920596719400    0.89233718498640
F        -0.31059328838052    9.84669944503729    1.99714692136804
F         0.17185097258684    8.02867254537328    3.02623858805106
F         4.42287276739044    4.60026454224416    2.46541776029999
F         4.10692458676124    6.50585968584541    3.40782580079376
F         3.34019421736173    4.71532485282811    4.32410211856312
N         3.09984227370249    5.79621812701366   -0.14987676930225
C         3.55671292098056    6.71072178411042   -1.03704512521113
C         3.30934261141534    7.98863783624373   -0.56120239757615
C         2.68580301889179    7.83911548041641    0.69980161518064
C         2.59925306824790    6.47366972250545    0.92111182657020
C         5.93936706870793    5.75032560574156   -1.76808913735335
C         2.07545142514796    9.67660394540946   -2.21596732818608
C         0.40323086161315    8.73711777615716    1.92138580419134
C         3.54344697640369    5.33467606564180    3.18222704349259
N         3.21450129509309    1.63309588778381    0.14898553066190
C         2.75603358333535    0.71916415807546    1.03592058225701
C         3.71675049821519    0.95492476134311   -0.92078457578272
S         1.99197275072330    1.24323929509681    2.52967088466847
C         3.00401722592576   -0.55906657099807    0.56120858842844
S         4.36194202563346    1.91722700136537   -2.23893933791083
C         3.62966577258595   -0.41039445922433   -0.69883265312083
C         0.37278654935965    1.68140188537059    1.76287216235543
S         2.60787118281094   -2.06692028939419    1.37600757370118
C         2.77673220746248    2.09289803078723   -3.18423590327488
S         4.12214665833066   -1.73118866746649   -1.74607453494434
F         0.53485911799075    2.68087366539250    0.85974637262457
F        -0.15652622491040    0.66331564928388    1.10425605017349
F        -0.48159408867336    2.10301108679884    2.67059851481805
C         4.23560060784106   -2.24563983345052    2.21899460810919
F         1.89649150670444    2.82852901842843   -2.46969903929965
F         2.21300879829803    0.92176797428384   -3.40955348295913
F         2.98228742696059    2.71091669797183   -4.32641188325680
C         5.91403020426253   -1.30899077780555   -1.91685130317712
F         4.24095741058748   -3.31951240155917    2.98804322140775
F         4.50396865732245   -1.18283924605979    2.97777187642327
F         5.22864163863963   -2.35512649548987    1.33794880870892
F         6.35028802617963   -0.58992841808326   -0.88797505460571
F         6.62807020683009   -2.41859982255116   -1.99041805172957
F         6.14687040385806   -0.60174172511362   -3.02217973110634

