84
CSD_code = FOBBOO | q = 0 | S = 0 | Stoichiometry = C30H47ClN2OP2Ru | MND = 6
Ru        5.86963366928934    1.17847721749187    4.17672081605337
Cl        3.84880897236335    2.46915325319215    4.56807573494449
P         6.88644391256038    3.23371132266156    3.69178416573765
P         4.49098444491467   -0.68233988171424    4.49222917600305
C         6.00275954580373    1.36250306576628    6.01960591396071
O         5.87419466431458    1.49558820447191    7.15976114672699
C         7.33602094500441    4.30392948260013    5.13986530773009
C         6.11468242085675    4.82222776479723    5.88957159291350
C         8.53774432387208    3.21159387659066    2.84417832547765
C         8.46354712855311    2.68027541470776    1.41945986574548
C         5.94088595921755    4.42399188693155    2.64711215532214
C         6.56920719439054    5.78913587252029    2.39266989062236
C         3.33564499131445   -1.21530919935715    3.14726648243596
C         2.17127864717771   -0.25048332331584    2.95470592754089
C         5.25635867175586   -2.32745462178971    4.89030808910175
C         6.23039495894710   -2.23823525670483    6.05472149191423
C         3.33855423246054   -0.46937220279826    5.92356098467320
C         2.45298921942659   -1.65226831959241    6.29738280285940
C         5.42744374046784    1.00747460357183    2.11498538179699
C         4.48904039247787    1.84559073828319    1.49652529937103
C         4.18237244502850    1.79052116565615    0.14801121030652
C         4.81781756035464    0.87737868423191   -0.67193825740146
C         5.72266432985142    0.00441436174603   -0.10209002762428
C         6.00631227341106    0.05979749662614    1.25834628220645
C         6.90563136460838   -1.02751255810966    1.79485059219693
N         7.84688664250081   -0.60511348417212    2.79935217342083
C         9.14760103021981   -1.25517633843687    2.80670781200826
C         9.81888194127829   -0.62768852143839    4.02019123075750
N         8.73720210702375    0.14399807578864    4.61773745453717
C         7.61469323795712    0.16310433754525    3.86434024430541
C         9.08907318883094    0.96213914843741    5.75345004798652
C        10.95926771649149   -0.11992681994835    7.04476080836796
C        11.42937438405300   -0.90434000321152    8.08313862702906
C        10.54273338996080   -1.44637248416789    8.99799785805001
C         9.18776027375442   -1.18952102868422    8.87572343908746
C         8.71913192883588   -0.40274374614996    7.83823611223048
C         9.59919908418479    0.13214846940323    6.90672598125395
H         7.95153813280710    5.13600977371018    4.78411982652953
H         7.95393683637337    3.70212972027182    5.81312752088978
H         6.41319148760100    5.27450748838791    6.83418064615445
H         5.41949794302621    4.01176905070304    6.10034092195461
H         5.58212993277897    5.56819267922317    5.30473961367406
H         9.19473098358510    2.57538578527020    3.44220855927836
H         8.95696481941391    4.22156640483050    2.85597858878433
H         9.46406357431377    2.53850775334160    1.01166363864168
H         7.92934442878541    3.37224094437560    0.77292100878099
H         7.93629052509796    1.72866884305179    1.39702776770473
H         4.97049628943814    4.53620575036882    3.14088704722441
H         5.76473503642190    3.91353822879063    1.69608694282109
H         5.90585813614838    6.36733976673679    1.75117049225631
H         7.52778899413021    5.70233156500507    1.88599223557213
H         6.71118249316612    6.34983561554993    3.31285930157493
H         2.97712579768645   -2.22631147294044    3.36788663086228
H         3.92307703989205   -1.25737864044720    2.22615792329171
H         1.68137433962293   -0.43886113893245    2.00101223654533
H         2.53133256681564    0.77577604774932    2.95760930008748
H         1.43340753116389   -0.35499833254316    3.74655694363248
H         5.77845213899843   -2.68516510409735    3.99928054478241
H         4.45524450862928   -3.03815599214884    5.10865578672424
H         6.70191442563612   -3.20230650614283    6.24275815149453
H         5.71751495300715   -1.92773061283519    6.96280002684923
H         7.00829166898019   -1.50878621091941    5.83253510788529
H         2.72500372870705    0.39983405940639    5.66690895770315
H         3.94831156730162   -0.17897225114636    6.78453889851244
H         1.73183075081699   -1.33336627126049    7.04835690159494
H         3.03225203217839   -2.46945014111453    6.72206785855250
H         1.89868789396816   -2.02715399825590    5.44055391572826
H         3.94394814691117    2.56311898754235    2.09443418026302
H         3.44430308372545    2.46719326290852   -0.26229415426950
H         4.60359047488012    0.83238907620376   -1.73050748051416
H         6.20993681076557   -0.74219434156904   -0.71894214275454
H         7.48778363586913   -1.45439772373855    0.97118390876693
H         6.27668132047540   -1.83759648576664    2.20048454883106
H         9.02775539566490   -2.34039481020331    2.91205163754575
H         9.67904163500498   -1.05536135267988    1.87106326462301
H        10.64555661921867    0.03879593031601    3.74196397479614
H        10.19810529030722   -1.36778578734301    4.73064431957255
H         9.87136195445733    1.67670317228064    5.45452923241008
H         8.19826549362375    1.51728916870996    6.04984411847777
H        11.65797804646934    0.30849702924124    6.33896590871857
H        12.48923097680933   -1.09008910539362    8.17917096742796
H        10.90863419160206   -2.05913593635504    9.80843335886432
H         8.49265325132379   -1.59849909406301    9.59391514605658
H         7.66478218289359   -0.19073144748725    7.76034377553680

