49
CSD_code = FOBBUU | q = 0 | S = 0 | Stoichiometry = C20H21CrNO5S | MND = 9
Cr       -2.60052043165366   -0.70280569889222   -0.02425062067956
S        -3.74940947695211    5.32941415291369    0.92194655423045
C        -4.06674012346352    5.12715497910217    2.60081581223900
C        -4.81261267422814    4.02129288713067    2.84863367086698
C        -5.13968942568617    3.31515563034699    1.66933308976946
C        -4.64380170869431    3.89801583606373    0.54274147191233
C        -4.70427286191364    3.39769457566977   -0.85568098375101
C        -3.49212961118019    2.45969881641574   -1.14445297230993
N        -2.28167225507035    3.26866596917845   -1.12004140100781
C        -1.93130293539567    3.76077346187536   -2.43329322541190
C        -1.15029881440596    2.66357287227275   -0.44752680108518
C        -1.53259063202576    2.33149509953559    0.99078634818318
C        -2.64295004784678    1.32797517192941    0.95618851861322
C        -2.80128293064107    0.36114579590862    1.97762035285823
C        -3.51956558923242    1.34831462097683   -0.12622762616335
C        -4.55841567617045    0.38486135169157   -0.20067938518097
C        -4.72571272156239   -0.56617091448388    0.80528583542071
O        -5.72068373548322   -1.49287107929944    0.84290351030549
C        -6.32563315513491   -1.85524919176815   -0.37949423375025
C        -3.83893392977874   -0.56809793973927    1.92848649791510
O        -4.10984165553673   -1.49342937013105    2.88642855653266
C        -3.07847392314728   -1.82642031975211    3.78959719535363
C        -2.59203458492629   -2.52014866579479   -0.11967070596357
O        -2.53556688176186   -3.67098929819671   -0.21808086336766
C        -2.28520081495383   -0.82581960286002   -1.80994649226896
O        -2.04884132039052   -0.93409487108916   -2.93859775528470
C        -0.80357723617397   -0.96515150817742    0.06739909212592
O         0.33332909876384   -1.18411164504351    0.08363928478081
H        -3.68376031876249    5.84291887532344    3.30072840365078
H        -5.12251296475434    3.71619519478030    3.83231636864889
H        -5.73016534531301    2.41462430600429    1.66262776371181
H        -5.63436403677946    2.84803979906229   -1.01255873694799
H        -4.67050428886447    4.23417425881361   -1.55372404996659
H        -3.64101600488179    2.01711611975780   -2.14619349905408
H        -1.11744482454158    4.47719575083400   -2.33531270230651
H        -2.78510111186862    4.27328133462258   -2.87293474937937
H        -1.61339190227669    2.95585785427676   -3.11346593688286
H        -0.80299282084561    1.74182173530631   -0.95203094655720
H        -0.33646695043252    3.39219125255941   -0.45879793132077
H        -1.85907975580897    3.24568672343297    1.49515127812596
H        -0.66874083227501    1.93225748338631    1.52541131753018
H        -2.14758227876534    0.40632272480317    2.83941264011477
H        -5.26799202603607    0.43851213265598   -1.01673415054464
H        -6.91120361533241   -2.74642320474863   -0.16217661976918
H        -5.56826345058655   -2.08844772592519   -1.13636819149712
H        -6.99430155051528   -1.07120108066150   -0.75099926219332
H        -3.43439473296063   -2.70272784011602    4.32781014579079
H        -2.88938662359200   -1.01923957429999    4.50536248631622
H        -2.15440851016396   -2.07402723565288    3.25561364764490

