46
CSD_code = FOBFIO | q = 1 | S = 0 | Stoichiometry = C24H16IN4Zn(1+) | MND = 5
Zn       -1.03448604894535    2.66185416222587    3.58187453794347
I         1.43409330908900    2.67943116092845    3.24317468675710
N        -1.04583832590301    3.82644668064967    5.41601655507575
C        -0.48020527562741    4.99339350666165    5.64488385653792
H        -0.10624433254804    5.52666061276816    4.78056608321692
C        -0.34045141947145    5.53324841057565    6.92551570363849
H         0.13490854225158    6.49221372418846    7.05178368904442
C        -0.81274404761593    4.82178006028396    8.00243101534098
H        -0.72799849008230    5.20642937624523    9.00770559865289
C        -1.40533856139182    3.56532783390060    7.78816943025675
C        -1.48771806795480    3.10258263186140    6.45641278901611
C        -1.90760953254037    2.75487595729475    8.84647219722764
H        -1.83522634739937    3.13168432699708    9.85515212338055
C        -2.45807638550965    1.54339201745892    8.59365375748282
H        -2.83939398832489    0.92942768685309    9.39498400360713
N        -2.05236986654122    1.36342320348283    4.91931406273159
C        -2.04100495066345    1.80721175406851    6.18968654093186
C        -2.53533621266306    1.03480733952299    7.26500694324957
C        -3.07651414447628   -0.22632916539051    6.96543685027136
H        -3.46337548755215   -0.84425311903016    7.76186887645321
C        -3.10058772536858   -0.65007174976919    5.65839532696096
H        -3.51136463259093   -1.60930915293161    5.38816123994714
C        -2.57065532757928    0.17877683744049    4.66801414521959
H        -2.57182266273217   -0.13787115331795    3.63492723353258
N        -1.52503301531409    1.49420308544067    1.81803844375327
C        -1.01010262579337    0.34451164127795    1.43453087353983
H        -0.38891118105677   -0.17133562676577    2.15541657879309
C        -1.22032354583440   -0.19724565711887    0.16433910002851
H        -0.76695750645942   -1.13984737083132   -0.09572303814496
C        -2.00148739332494    0.49210820477461   -0.73213651369113
H        -2.19119083694126    0.10536966393580   -1.72223531590787
C        -2.55219150810483    1.72862213636954   -0.35336439959516
C        -2.26781963904650    2.19675022830505    0.94844068093322
C        -3.36376917372821    2.51440819786533   -1.22116399863701
H        -3.57063216783268    2.13355001704180   -2.20961800874702
C        -3.86051633832880    3.70816573935311   -0.81747613741650
H        -4.47686699190539    4.30296695010036   -1.47412796730448
N        -2.42686664708329    3.92657129231144    2.58783787350280
C        -2.76459224206976    3.47501647312247    1.36600496633885
C        -3.57126105067562    4.22342599228311    0.47900354666580
C        -4.04497586946953    5.46870970456861    0.92397998501004
H        -4.66383338852601    6.06849272341413    0.27341914956492
C        -3.70772471323167    5.90040330899879    2.18427998049921
H        -4.05453201041102    6.84815642101058    2.56295547385764
C        -2.89046941894333    5.09550162232128    2.97996592063349
H        -2.60488275377668    5.42006230925104    3.97052555984328

