55
CSD_code = FOBFAG | q = 0 | S = 0 | Stoichiometry = C24H18CdF6N4OSi | MND = 6
Cd        0.29324424171962    9.08317518435985    7.80221533632512
F        -0.92332373220971   11.11000287673439    6.80084646785200
O        -0.39806049452468    8.73158703617376    5.38613194687424
H        -1.09222270944680    8.27822613272080    5.89012842285375
H        -0.74250942169015    9.61384952365790    5.20959268508822
N         2.07996029571302    8.21665968962163    6.67947092327236
C         2.03137750625610    7.14557187928834    5.92076468810340
H         1.29038222636984    6.40350057112503    6.19160032802758
C         2.86982931490040    6.95851961644280    4.81715310012134
H         2.78432432479185    6.06373345562703    4.22097238161873
C         3.78086016090382    7.93741433667884    4.50230868155244
H         4.43641391052670    7.83860305331254    3.64869882337166
C         3.85148696760336    9.09290545156666    5.29751763713100
C         2.96238880567742    9.18388498229161    6.39198554695991
C         4.75208877523801   10.16314394749301    5.02945303154912
H         5.41203412634051   10.07280617787456    4.17901502671203
C         4.76654239571092   11.27154484194282    5.80663504180668
H         5.43704508264387   12.09058542987762    5.59210565413599
N         2.09666381805061   10.44579080805437    8.22403613239485
C         2.97836358017819   10.36130951249239    7.21721907015325
C         3.88258382298168   11.40267975835303    6.91548217282800
C         3.83640702485946   12.55416537214370    7.71832220091127
H         4.49078433392192   13.38434910050934    7.49641660088753
C         2.94403030101923   12.60892323653981    8.75981604250516
H         2.87081228883466   13.48142928627343    9.38847775040368
C         2.08740178639834   11.52415060938556    8.97177137707789
H         1.35619667982356   11.54664347700513    9.76862433846820
N        -0.81795345143160    9.88847811638466    9.68463784494298
C        -1.63505442502382   10.91739567499045    9.69353892886118
H        -1.39970004002031   11.73034257753246    9.02235454778351
C        -2.76330257685801   10.99077340535685   10.52073394908838
H        -3.40449835565712   11.85668972955933   10.47496200655428
C        -3.03511357820282    9.94596503859252   11.36714516705943
H        -3.90135316674002    9.95508873763061   12.01364180689353
C        -2.16706893397277    8.84091365277915   11.38979867787169
C        -1.05737558243876    8.86074585246417   10.51472325660519
C        -2.37976395334285    7.72225317399730   12.24531968330097
H        -3.24234879661447    7.73586841108460   12.89567777945493
C        -1.53127417735286    6.66803891319421   12.23717986267898
H        -1.69683821226292    5.81564527193734   12.87993301651703
N         0.89952093942532    7.76960526288951    9.67776522649122
C        -0.15129647062564    7.74181232279496   10.50947332197451
C        -0.39968621773393    6.64897823874199   11.37303623693378
C         0.49594437574074    5.56837807870275   11.32920660358213
H         0.32968261369560    4.71290658261507   11.96853797408408
C         1.56475021959435    5.61805713339727   10.46864473209842
H         2.27057466558945    4.80443716113866   10.40620632420667
C         1.72220840815127    6.74799564927611    9.65907852179245
H         2.55592518362574    6.81940406168015    8.97144308803048
Si       -0.01528421842073   12.41231987809042    6.14466736798125
F         0.06369321456390   12.99997787152771    7.65578920693341
F         0.95112475086629   13.59960690460941    5.59831325589952
F         1.01306242114904   11.27680861949254    5.59189038558119
F        -1.22469351734842    7.75249047227823    7.73853169323701
F        -1.24718653085560   12.77816785969875    5.19070812465607

