50
CSD_code = FOBGEI | q = 0 | S = 0 | Stoichiometry = C21H26Cl2Ti | MND = 12
Ti        9.65518198554742    5.94716632633654   12.20317202440420
Cl        8.57294066853723    7.19183226365821   13.71924496408671
Cl       10.39835675635423    7.83423881211735   11.22722329607537
C        10.71210875907188    5.36499274940836   14.18541057957608
H        10.31076806789117    5.56262048506879   15.17211625236640
C        10.57394330431296    4.15235173155063   13.47168132698295
C        11.40669139940873    4.23743232263926   12.32024678373834
C        12.00895822505449    5.51491475223864   12.30755769273346
C        11.57396055563844    6.21760711223618   13.45917028460321
H        11.93265126716771    7.18730299294598   13.78529776370088
C        11.91911293265201    3.12303465529699   11.45342059028667
H        12.65132365650051    2.55462446901031   12.04195411999273
H        11.13810684575603    2.41624062209631   11.16212506142362
C        12.62144653911144    3.70399509575150   10.22570345384261
H        13.07712418488740    2.89845831142160    9.64608361969880
H        11.89367355312877    4.21527056287607    9.58785461119698
C        13.68941507437972    4.70460793722257   10.66330094202646
H        14.29006972581807    5.01221000020545    9.80576290503638
H        14.35447766253844    4.22375535831356   11.38462644635111
C        13.04238713663049    5.93535971984524   11.30301582003660
H        12.57807276273392    6.54994426800244   10.52300778465891
H        13.79995508495315    6.55393010896894   11.79183896228994
C         9.84732141804208    2.95008734928669   13.99659573035789
H        10.12701956280035    2.06157121703092   13.42434418636643
H        10.15467513074038    2.78816155469135   15.03504367315696
C         8.32237296419971    3.11732280267411   13.96178377923663
H         8.04747990917464    4.07984465841929   14.40875576280188
H         7.86508260829607    2.32104244899562   14.55396831058616
C         7.77828365644536    3.04869701467168   12.52886427973224
H         6.69126956242733    2.92893568762479   12.57676260821770
H         8.18911025877335    2.16394355077299   12.03238727627596
C         8.08622724322031    4.27039865342108   11.71640742043127
C         9.04314380415837    4.36271564532921   10.66717191763837
H         9.61858481315056    3.53743048615284   10.27664973747043
C         8.88636299976218    5.61204265684847   10.03054863649719
H         9.40064542749925    5.94481784032073    9.13646795610653
C         7.82011011275835    6.29367750848892   10.66720786828943
C         7.31005206523121    5.45847366514143   11.68701610211467
C         7.18654518506758    7.58823596583208   10.26263449924042
H         7.94659675251141    8.36777975987637   10.15181469973376
H         6.71006867032029    7.45182411496883    9.28359218101310
C         6.13857544384312    8.00534528671100   11.29592502987238
H         5.53757424644774    8.82488174164350   10.89804865123324
H         6.64254980899219    8.35783338975460   12.19809500464524
C         5.24474128901800    6.81919500675032   11.65412506972064
H         4.40208134535063    7.15384195867547   12.26116429260858
H         4.84771293849327    6.37705118520997   10.73634618354242
C         6.04326467399479    5.76518830010788   12.42701728092575
H         5.45242847375910    4.85092651236804   12.54458072609734
H         6.26419348744929    6.14874338101949   13.42806585097719

