62
CSD_code = FOBKAJ | q = 0 | S = 0 | Stoichiometry = C19H31CoN6O5 | MND = 6
Co        5.33511898823544   12.72120734793186    1.07135990830326
O         3.03229857329375   14.05642000881559    0.21290838399189
O         6.99305478638727   10.91688536134423   -0.48534977846998
H         7.41918702611594   11.01785059415766    0.45103535721784
O         7.65995146400825   11.37913808195341    1.91888498969997
O         3.84211229138050   14.71223938629132    2.49884008571920
H         3.36541172614489   14.53677112893130    1.57764958767987
O         3.66792227203769    9.54053946627239    0.28103987541624
N         3.89867769992376   13.14060405787962   -0.06203632044978
N         5.83441563942384   11.63144251329479   -0.38720481349381
N         6.74786915196095   12.24790895100756    2.22581225386362
N         4.86249028170999   13.81905250091925    2.51045117777205
N         6.38927286858077   14.35518730615770    0.12001300910956
H         6.25038776948923   14.18653935757231   -0.87648144563715
H         5.86922928614741   15.20584597976937    0.33616035817849
N         5.54964821163191    9.23516860306139    1.47646998591145
H         6.31400283633559    9.67902532733342    1.96234323926470
H         5.78804579990195    8.45228591366128    0.88796817250104
C         3.84491390978100   12.44565035609299   -1.16093078294821
C         4.97260705783024   11.57163183572334   -1.34763247590663
C         6.69056135702016   12.78461380088103    3.40970668548867
C         5.60875354699640   13.72054990644387    3.56012949322298
C         2.72906184374635   12.55815763089819   -2.14795015325480
H         1.99085248975309   13.25565891773161   -1.75790028913790
H         2.26565092779311   11.58385839943502   -2.29058380575857
H         3.08487381806134   12.91933424826371   -3.11254497044591
C         5.11156219520169   10.68273396399318   -2.53278940834184
H         6.13803984532297   10.33538622728995   -2.61919930051116
H         4.80717014612006   11.18648735952980   -3.44637784372137
H         4.46171240448723    9.82125647617531   -2.37613727037199
C         7.63992823671708   12.45119275331522    4.51453669100258
H         8.43432414503725   11.82540872432293    4.11359834701906
H         7.12562516929239   11.90338403701673    5.30421522534371
H         8.06975241068308   13.35389089331830    4.94254865450257
C         5.39235109125753   14.49737172104298    4.81439999087688
H         4.48426770980865   15.08755264957226    4.72461763698258
H         6.23624091599777   15.16143531847495    4.99415043515393
H         5.30362427251913   13.82004253462219    5.66163087312944
C         4.23916921037285   11.21195121910758    1.91867648999037
H         4.66949812303421   11.06549402641022    2.91583669930882
C         4.44527291561426    9.95118798449949    1.12649028749337
C         2.75242119925319   11.49829427896149    2.06492126463178
H         2.55777879182326   12.45442037270069    2.54231504208930
H         2.30790001109504   10.71763472626494    2.68573341058440
H         2.25512914619037   11.46742213840869    1.09974537396353
C         7.82345648848614   14.61152122890709    0.32712539111622
H         8.34386792765192   13.65104512164958    0.24585086958948
C         8.09578740025101   15.20375509936760    1.68842463129919
C         7.35837668774684   16.27769892602919    2.17165386565415
H         6.53626826665796   16.68828517449672    1.60252574809349
C         7.66686871217345   16.84978640862343    3.39307562104680
H         7.08161239085559   17.68158943133326    3.75657718798771
C         8.72510547713448   16.36420707966313    4.14205953139655
H         8.96909384564077   16.81593698826477    5.09249509300627
C         9.46844294782744   15.29773542176188    3.66558135809307
H        10.29715015046667   14.91452168940894    4.24263916807906
C         9.15309963816412   14.72096207975428    2.44806980469161
H         9.72972582349018   13.88341826337532    2.08469380959068
C         8.36633356999737   15.55789738668341   -0.75162478501992
H         8.23971448293890   15.12347156002592   -1.74192413839852
H         9.42579050817134   15.73864671709885   -0.59011871586723
H         7.84826611882334   16.51480703670636   -0.71667476732427

