43
CSD_code = FOBLIS | q = 0 | S = 0 | Stoichiometry = C16H11F12MoNS2 | MND = 11
Mo        0.37721254467015    3.04666020536919    1.17446335680934
S         2.00419626306228    4.46768166935566   -0.07780682799836
N         4.05785618976599    3.04599242973530   -1.04483763734729
F         1.03073994050761    0.32237441090788    4.65383337209738
F         2.11963818632071   -0.03141936596021    2.83147623184995
F        -0.03603359210177   -0.08158430176877    2.83024749858773
F         3.79628512861288    3.04577930618051    4.10944747462197
F         4.03027738290878    4.11808167003051    2.25896087273663
F        -1.90835102082069    1.96873380686897    4.14657100815761
F        -0.71897263029879    3.04682272234392    5.57733029132663
C         2.86262936857031    3.04618991404331   -0.49166004551837
C         4.76661197298288    1.82498923901326   -1.33894131781640
H         4.94913261790813    1.75195662758591   -2.41252971565578
H         4.18283983776523    0.96757507020615   -1.01216310619287
H         5.72343414151556    1.82315069114923   -0.81479429885813
C        -0.71656396335846    3.04572421091818   -0.78397760730682
H        -0.36977211060575    3.04501162274279   -1.81565243059615
C        -1.19397810949540    4.19841984982106   -0.08527653956070
H        -1.10935002483695    5.22088251571941   -0.42206325936721
C        -1.85612258573364    3.76282877471190    1.06165656773804
H        -2.39368934249514    4.39401842229299    1.75356750665841
C         0.97903002436502    2.00896448269271    3.00356819453784
C         1.03722751344019    0.57079275922266    3.33300493865896
C         1.96040549387081    3.04653656206089    2.63281968517721
C         3.43634805119347    3.04677683945867    2.81604391533534
C         0.02933900354334    3.04618442333509    3.35614814925128
C        -1.11783502913633    3.04570777279211    4.29965086763914
S         2.00375782582146    1.62507198945026   -0.07728292663029
F         1.03249604177228    5.76980172298115    4.65460400408593
F         2.11728461975173    6.12522339325338    2.83013763196970
F        -0.03842736458303    6.17344746205265    2.83336324438925
F         4.03097831384544    1.97679433024692    2.25714389353779
F        -1.91048582528632    4.12095365372993    4.14539936572375
C         4.76698063015102    4.26683924003795   -1.33863508155761
H         4.94565438170571    4.34239046663811   -2.41273184142805
H         4.18542596553144    5.12414741117088   -1.00756733063872
H         5.72574370523599    4.26610989446754   -0.81802399443283
C        -1.19436191924643    1.89408343757131   -0.08377283703806
H        -1.11037232134289    0.87117667213746   -0.41934903647792
C        -1.85642181719269    2.33145626657193    1.06257047739597
H        -2.39448294774930    1.70135583512308    1.75509432291918
C         0.97875043694123    4.08376415444614    3.00380260526897
C         1.03644502250313    5.52185173931205    3.33366035799224

