101
CSD_code = FOBQOE | q = 0 | S = 0 | Stoichiometry = C35H59N3PSi2Ta | MND = 9
Ta        1.26812654458903   12.21219529530766   35.07595704818461
P        -0.09815252939037   15.29443367068861   33.76200298503948
Si        0.86003291199841   14.30654978352472   37.77579530467991
Si       -0.45789857786220    9.33749130981823   35.75594275242208
N         1.52310197977861   12.88925928865885   36.99962251848453
N         0.71763044780523   10.53599333153053   36.18296814416713
N         0.19974526389992   12.42325444964932   33.40936257373416
C         3.53167969505760   12.27968853706682   34.45873452180538
C         3.54486812227400   13.30513717693510   33.40446138604968
C         3.53856204448379   12.68977914088538   32.18258655269091
C         3.57541358969896   11.25993891876587   32.37796198839467
C         3.59705186034750   11.00201717500759   33.72177962476919
C         4.45114441576391   12.45410685821506   35.65257681801825
H         5.48738760446618   12.50162995122276   35.31043386287656
H         4.36615381369579   11.61764650649756   36.34673298629104
H         4.22827718319418   13.37238068190360   36.19602749890517
C         3.58366837462849   14.77956932936930   33.64340542370768
H         3.88954002083021   15.00553895628240   34.66182932833554
H         2.59658187163150   15.22682030583254   33.48093379614741
H         4.28051304667958   15.25438422294459   32.95336070188822
C         3.52259922949226   13.40534143760848   30.87064784823230
H         4.45871546829233   13.94512385890489   30.72267612642974
H         2.71391881231427   14.13495096670292   30.84879372364762
H         3.39466706382121   12.71980934787495   30.03803525179785
C         3.63507346421154   10.23568297394048   31.28895374206664
H         3.20063776014573   10.60689324888564   30.36312442873307
H         3.10347177478798    9.33030382632398   31.57804245586351
H         4.67156764750294    9.96263102355319   31.08396435407698
C         3.79475298717879    9.67203706294116   34.38331160077495
H         4.86147924888639    9.46539186116534   34.49721722953020
H         3.36884555268501    8.86976767820338   33.78326081896887
H         3.34145083510022    9.64030583392821   35.37479172221203
C         2.01373190767099   11.80401705102056   37.69829799102859
C         2.89376836402127   11.88549022201219   38.77355361651139
H         3.23995858604885   12.85738422430229   39.08872721462458
C         3.34009151326598   10.73981809559153   39.40733239753164
H         4.02291589932863   10.82018767699524   40.23994207683032
C         2.92509098940528    9.49202711267786   38.96724981841963
H         3.28442742651095    8.59846289788890   39.45595665481336
C         2.06056176348546    9.38187743486387   37.89321769740310
H         1.75785498547483    8.41083232136523   37.53332802187109
C         1.58208707924675   10.52068147965812   37.24945665105656
C        -0.99396358813292   14.28561006410930   37.30947525979042
H        -1.10580693247522   14.36726378531198   36.23139930580393
H        -1.53121660546904   15.11156060919044   37.76249504517133
H        -1.46940954652784   13.36135747066908   37.62656583935497
C         1.74858288996840   15.83765668357507   37.06061013530410
H         2.80825835713951   15.85460485179777   37.29932939553615
H         1.31039835847032   16.74956754227859   37.45082837985061
H         1.64084098452663   15.85555836309792   35.97989743557842
C         0.97967883274102   14.29569132606455   39.68469188375023
H         0.82834103578020   13.29978087468183   40.08778708400383
H         0.21787010026985   14.94404462491646   40.10481215393735
H         1.94023877547178   14.65463135883213   40.03823772457977
C        -2.04887611479606   10.34243347969647   35.39987023488145
H        -2.70101996294779   10.36366692400502   36.26748761636587
H        -2.61650649130857    9.91457131094222   34.58001466166928
H        -1.80361846190693   11.37243298392920   35.14948379595941
C         0.17232322348277    8.44810620302717   34.17436291073533
H         0.67192281704016    9.14961094689947   33.50887002361193
H        -0.64397441301439    7.98760647506864   33.62671961681945
H         0.88340376523677    7.66264961548298   34.41534596574791
C        -0.88019058892503    8.04619842878093   37.09819929378153
H        -0.21508584042438    7.18983415459354   37.06841468496979
H        -1.89025806046072    7.67719382877023   36.95289513039756
H        -0.82317179769040    8.47749573029983   38.09223173037750
C        -0.58813566409319   15.68247843166557   31.95782462172210
H        -0.56759169111272   14.76820657799955   31.36049182243633
C        -1.98422648065441   16.29884109055413   31.90804244768151
H        -1.99600814851592   17.19740516731166   32.53032285632273
H        -2.72003922262756   15.60415560090237   32.32260306639144
C        -2.35759440642368   16.66358540786259   30.47341898419888
H        -2.38718835651019   15.75623314555395   29.86371377156912
H        -3.35351303908122   17.11181931302887   30.45137414343711
C        -1.33559207204927   17.63327497509041   29.88761810542868
H        -1.59720098716625   17.87265719014177   28.85427718808915
H        -1.35112830967445   18.56245741217065   30.46167587284259
C         0.06483683471264   17.03022191420783   29.94438180611759
H         0.79335579494394   17.74023600320692   29.54629838396033
H         0.09811836652532   16.13323006542036   29.31969800380731
C         0.43197957878874   16.66142260803149   31.37955962541532
H         1.43047119064633   16.21664913672092   31.40674697980127
H         0.45465353718086   17.56272388182435   31.99742250648493
C         0.17793951242332   13.64600267756695   33.92266658618037
C        -0.55800646149695   11.85085419660210   32.30693475306951
H        -0.59940542242291   10.77284225037567   32.52196965574265
C        -1.99624649641741   12.37075618156191   32.22514451529757
H        -2.50185276592446   12.18520209012229   33.17437638859285
H        -1.98693933671462   13.44691648177532   32.06325884376754
C        -2.74622998761046   11.68670401375807   31.08665195537838
H        -2.81805576433799   10.61550974313289   31.29061106475633
H        -3.76108319693612   12.08500979649306   31.02707530885374
C        -2.02350076457485   11.89985463278101   29.76012912042509
H        -2.56818476246206   11.40327998651275   28.95452706550240
H        -1.99120233451067   12.96779696041092   29.53243245254099
C        -0.60103394945258   11.35428414814429   29.84007443880044
H        -0.08329369068877   11.51908445902775   28.89262439103981
H        -0.63689337008565   10.27698148049307   30.01919250269862
C         0.17013197474065   12.02982156611039   30.96880346266600
H         1.16949535333089   11.60482888891104   31.05977207624698
H         0.28270775955637   13.09381236199146   30.75510266571328

