43
CSD_code = FOBREV | q = 0 | S = 0 | Stoichiometry = C16H14F6FeN2O2S2 | MND = 4
Fe       10.72287980472008    2.25317288812731   -0.00276658775267
S        11.17955672570272    6.47891082715933    2.17898526028019
S        12.63487666336712   -0.37745372519158    3.49551165428256
O         9.63442502583335    0.85740682059485    0.23545364376432
O        11.41036155836283    3.37671005018241   -1.20957402609475
F        13.28697479066119    5.17241995657692   -2.93026709955320
F        11.54482692496153    4.19059277642051   -3.72410181250707
N        12.03402942744055    1.16414189152617    1.52702260532435
F        11.44850455545032    6.26148435787027   -3.14412472936946
F         8.89158248216263   -2.52482317849881    0.33906777764019
N        10.59726807278347    4.13436624556092    1.29744597367267
F         7.49684120534731   -1.19043318501110    1.27963965354439
F         7.99278179177885   -0.93308867072234   -0.79821947341599
C        11.63737184171987    0.05745779596019    2.12611770946436
C        11.47245326829172    5.61439634535363   -0.42090646626935
H        11.73558683131060    6.63329173957248   -0.64922799989142
C        10.53404671206343   -0.73528144304482    1.74790446479883
H        10.38238906648703   -1.68000180768717    2.24194693571249
C        10.29879467427713    4.12700044853394    2.62580931586928
C        13.13305928096957    1.71004256652201    2.11660493548244
C         9.65209304682188   -0.30881268898243    0.78477916238136
C        11.54963003296855    4.64543351412519   -1.39160387261450
C        13.60856674195570    1.03101153563794    3.20154578063793
C        10.54737167752693    5.29696183176042    3.28430196488699
C        11.94827332998945    5.06425276613192   -2.80111645334222
C        14.80179013566831    1.35459896912028    4.02695997098138
H        14.83540021795357    0.72242408842988    4.90975721608445
H        14.77675777955090    2.39827126167901    4.33790313051183
H        15.71663694229789    1.19640061500530    3.45452845286046
C        13.75475535830386    2.94583035057951    1.55847929765511
H        13.33385055606153    3.14873485085589    0.57599309849554
H        14.83186875371715    2.82082207688013    1.47078702211567
H        13.56413958085923    3.79905690989945    2.20854463385905
C         9.71480474155576    2.91123453672608    3.26308726815462
H         9.40828711678506    2.21048191618113    2.48938674686909
H         8.85226662553566    3.17928573799197    3.86950302011945
H        10.44655866676885    2.42773490390658    3.90945001157883
C        11.07315795512442    5.29703161703036    0.89392021697533
C         8.51123461584561   -1.23867282402093    0.39130775656207
C        10.29515689467261    5.60687903610961    4.71610051827163
H        10.73473977095586    6.56447114796615    4.98042771997363
H        10.72099792964684    4.83247266203116    5.35294942490065
H         9.22355082573292    5.65288248514270    4.91408617710741

