83
CSD_code = FOBTEV | q = 0 | S = 0 | Stoichiometry = C36H39CoO5P2 | MND = 5
Co        8.89447487003088    1.57828986114319   11.47012246811121
C         8.75215236863973   -0.24245429664643   12.03214652953061
O         7.65643778460295   -0.55477988485756   12.43852910354523
C         9.89339437319279   -1.26919327993371   12.08656554096610
O         9.60613033788935   -2.31999452029973   12.96997231306140
C         9.55990930118460   -1.93808080822512   14.32894596418202
C         9.39974203953854   -3.19619447037180   15.16654186508815
C        10.10657368703480   -1.84285507374815   10.66755750263420
O         8.82576198048989   -2.06032064638400   10.12226859908831
C         8.80435960731418   -2.48329738660323    8.77506295665486
C         7.38382254428977   -2.33086982728414    8.25213245093734
C        10.97387920867420   -3.10005066743821   10.72915761034152
C         9.85479700252758    1.79837799616192   12.92753773649194
O        10.44614190154136    1.89109749775959   13.91233861844928
C         8.79470635583857    1.02439608118723    9.80492072966100
O         8.75651544139912    0.74353017745603    8.68915725061794
P         8.79568744204080    3.73545579553142   10.95485539816527
C        10.25880489428515    4.81043530470205   11.06346630764809
C        10.21605918519774    6.17420076161574   11.33886945594250
C        11.39092055320087    6.90129880516392   11.40585961782184
C        12.61175347840081    6.28044547110329   11.19484905493739
C        12.66024397468079    4.92430671762253   10.91708586049200
C        11.48840413415840    4.19305831354072   10.85534167506518
C         8.02312863166076    4.22683002119516    9.37860168412278
C         6.89157606375704    3.52086951661699    8.97596236121054
C         6.24865744690623    3.84469141315471    7.79712225673514
C         6.73898195404717    4.86700321491696    7.00002012266428
C         7.87542610728224    5.55806668711090    7.38493992050197
C         8.51932212607361    5.24202675332287    8.56868067878007
P         6.76939911088746    1.85449984214858   12.37295370264317
C         6.55472873882235    1.46792243517705   14.13669621147287
C         7.18781345339468    2.25873663423743   15.09032037156938
C         7.10674992102149    1.93523221290692   16.43169819727900
C         6.40310880846929    0.81104239195315   16.83155324246022
C         5.78438437035348    0.01145490308887   15.88446118968664
C         5.86038541583283    0.33317555110156   14.54190523126629
C         5.22911201319215    1.18925907131763   11.66916508189284
C         3.98835001133191    1.61462976252307   12.13524631823761
C         2.83156950078651    1.12601404615228   11.55791460978515
C         2.90418589659701    0.21347940764477   10.51640710602565
C         4.13707999748889   -0.21684277838086   10.05602928635474
C         5.29811704698057    0.27085447100200   10.63014905474861
C         7.62922141637555    4.52204861811296   12.16413301166188
C         6.36359378873080    3.68920243954100   12.35288502759552
H        10.82542974906699   -0.76161537329747   12.39655411457806
H        10.49183811180971   -1.41150661873849   14.59609965393237
H         8.71933951744279   -1.25462181677178   14.51343849578384
H         9.35248468628422   -2.93607275284905   16.22038515330314
H        10.23874044131925   -3.86605162827516   14.99796850612566
H         8.48484303461823   -3.70674415586074   14.88077841283281
H        10.62808672883229   -1.07100960810127   10.07052470587974
H         9.11701946009178   -3.53485404345112    8.69781098443604
H         9.49879471763678   -1.87102770149666    8.17873625960944
H         7.30765780914944   -2.75299148556282    7.25346308105126
H         7.10988418109159   -1.28037939752786    8.21534744077988
H         6.69832394385618   -2.84772918507202    8.91785297427889
H        11.88934652731618   -2.87907486555281   11.27046531423354
H        11.23166980196136   -3.43907039433087    9.72891193658106
H        10.43220604107529   -3.88114573874991   11.25390963437079
H         9.27026527699717    6.67204397029326   11.49670327783888
H        11.35412285543710    7.95912445114474   11.62297789407788
H        13.52456862141055    6.85499575820255   11.24974511949826
H        13.61077501973025    4.43799931264160   10.75453701437768
H        11.50643379703838    3.12778807903585   10.65399607147061
H         6.52654423663733    2.70274805751811    9.58539681977328
H         5.36954527136973    3.29383420471990    7.49566180381323
H         6.24131402992688    5.11781361724199    6.07492394766012
H         8.26649283313564    6.34671886897917    6.75851837947250
H         9.41083710087285    5.78005975812516    8.85791182621581
H         7.75873996770520    3.12407028353781   14.78114319787550
H         7.60132596278723    2.55504572640511   17.16599636747424
H         6.34539816468638    0.55443001557607   17.87934240305454
H         5.24537902380014   -0.87238756738412   16.19372424563993
H         5.39896780713127   -0.30144489117572   13.80038819424936
H         3.93272686637705    2.31800431571865   12.95489591569669
H         1.86853143137729    1.45483696928931   11.92179568478217
H         1.99663628734356   -0.16501501224348   10.06877075094114
H         4.19495745117287   -0.93358832386694    9.24972320627367
H         6.26584076195619   -0.07158276050227   10.29162478088977
H         7.37593947912054    5.53434198405270   11.82992518824968
H         8.19175938793425    4.59639370247984   13.10169753028391
H         5.84728215765823    3.98815283160291   13.26972181134901
H         5.68738717068725    3.86041287817087   11.50980262514383

