106
CSD_code = FOBTAR | q = 0 | S = 0 | Stoichiometry = C56H45MoNO3 | MND = 5
Mo        4.87244034657119    3.90010312627599    2.24752561093074
O         6.44353866877328    4.41876619745847    2.63460396088036
O         3.28114578412458    3.19601932367842    2.15644244183530
O         5.40798973758233    3.01830374801228    0.47200706584144
N         4.11756195482708    4.45211265980329    4.46841641512355
C         7.30046635929945    5.38274501811649    2.87516610634645
C         6.81331655944749    6.71469028428223    2.77538012524648
C         7.71004054897902    7.72477138256224    3.14230667219415
C         9.00236266181543    7.45481920546136    3.54293862929272
C         9.46955468695380    6.15267715513996    3.59305819354180
C         8.62512459816645    5.10309047515004    3.26226958610951
C         2.30794065598349    2.34527155780376    2.44496000474625
C         1.01410630336214    2.45821966605611    1.89498417729321
C         0.04567747027395    1.51903359075542    2.23175978956932
C         0.31762776560353    0.48599600248094    3.10847701920374
C         1.55886312566682    0.41472486100411    3.70906190153618
C         2.55581596223049    1.33536825393000    3.40748575415802
C         4.87301218297466    3.18365882263252   -0.71767921546901
C         4.07265474618527    2.14714772731345   -1.26277123359080
C         3.48934427892348    2.30180252798050   -2.51363668533534
C         3.67161974421999    3.46244853530221   -3.24236666765400
C         4.44248774495285    4.48321296660480   -2.71596514819923
C         5.05216023028816    4.36335741612282   -1.47321633875177
C         5.15939335730691    5.03848411208893    5.30838736848202
C         2.88071714257895    5.22681587869571    4.57194934925750
C         5.45504391137575    6.97655092222048    2.28536171147078
C         4.53958339063016    5.93486286435167    1.96149425323300
C         3.29563966048979    6.32811086710516    1.45374688617914
C         2.92178775585372    7.63873511231140    1.26756689924249
C         3.81903281683712    8.64746810260271    1.59446517047037
C         5.05680370897924    8.30925511653518    2.08747515588817
C         9.10563100167901    3.71196837159257    3.29834914323143
C         9.90625442313224    3.26745208468066    4.34932992178780
C        10.38715950799673    1.97142847746089    4.37035937113336
C        10.08233876545223    1.09785340042482    3.33938144861807
C         9.28329979303666    1.52703365626621    2.29217044755399
C         8.79249908997289    2.82109575565726    2.27186886882999
C         0.63850397719546    3.56660273973474    0.99802340173607
C         1.42414027151593    3.92043213677970   -0.09368664540967
C         1.02582940759861    4.93324794499648   -0.94945723681075
C        -0.15259850815313    5.61917884634898   -0.71439359649015
C        -0.93341539481366    5.28733439459969    0.38154624266910
C        -0.54552634311291    4.26656155291714    1.22843730964263
C         3.82023796132234    1.31035755339168    4.15977272373721
C         5.06620707368570    1.49021628938345    3.53333874150333
C         6.23139259858534    1.45352557012009    4.30051525422869
C         6.17125430436938    1.32380046883385    5.67395462608352
C         4.94033312713450    1.17361062598979    6.30182352330934
C         3.78006095519013    1.16296028318708    5.54796991610612
C         3.80799614938746    0.93881322784441   -0.46191456227342
C         4.83830246665342    0.26583073390435    0.19238447030802
C         4.57080574214278   -0.84727103032070    0.97012882152690
C         3.27280155112055   -1.30965471092016    1.10440430812722
C         2.24343919379077   -0.65924388962496    0.44541084629810
C         2.50684518154535    0.45477428296965   -0.32899535281483
C         5.92251790748973    5.44356406910731   -0.98512064774503
C         5.54619819236355    6.77896979490102   -1.10710893855804
C         6.41205220576704    7.78970017809040   -0.73442952259261
C         7.66676425568886    7.48583603439070   -0.23487167662296
C         8.05001491500675    6.16195122033825   -0.10139844762381
C         7.18514439276207    5.14926667140619   -0.47294357376839
H         5.14070347233449    1.40208680285245    2.45190708650425
H         3.91603941437457    3.52596014348201    4.85377788051345
H         9.03988593198504    0.84973945498719    1.48612188865568
H         8.16725085028122    3.14759724951699    1.45062902293616
H         2.34509414775262    3.39174765276988   -0.28328980819663
H         1.64780560227042    5.18226448887394   -1.79583646896055
H        -0.46323935726838    6.41131892988331   -1.37966097685546
H        -1.85043571318363    5.82503189882297    0.57547030959849
H        -1.15497615605245    4.01500185676132    2.08520464675711
H         7.19011744753444    1.51987203279723    3.80888989219473
H         7.08091599374185    1.31525250209910    6.25595615525340
H         4.88738437022442    1.05577832235210    7.37387472178037
H         2.82335604756047    1.04305491839041    6.03736241773016
H         5.85519538128248    0.61303029856344    0.07238046076558
H         5.37967974802273   -1.35757409050545    1.47482113023471
H         3.06487849931292   -2.17528179657110    1.71632228817032
H         1.22855271063432   -1.01743164725998    0.54118585001154
H         1.69491917046040    0.96422033096525   -0.82878710251854
H         4.56425754931669    7.02318146677816   -1.48483401344440
H         6.10693735032706    8.82099851097955   -0.83749327465936
H         8.34552654124064    8.27580708928875    0.05163337707899
H         9.03165705763221    5.92138424856914    0.28321773966538
H         7.50224194862587    4.11638768220087   -0.42541474429813
H         7.40219505235885    8.75730481955933    3.11769691563823
H         9.65903102995469    8.26986681856891    3.80930045283003
H        10.49270033082033    5.94871611756137    3.87099289455683
H        -0.93118190800647    1.59938214443194    1.77804811874499
H        -0.43998654314294   -0.24831322549918    3.33600044417559
H         1.77548577781125   -0.37320707119513    4.41530985396189
H         2.89626163887612    1.49361290658943   -2.91823587567901
H         3.22056917316337    3.56773234873301   -4.21796715953344
H         4.60425400942174    5.38578190229465   -3.28856247423055
H         5.41218827586279    6.03156428683449    4.93377571435841
H         6.05032109452882    4.41013643515645    5.28059631935480
H         4.82724277807758    5.13211140477404    6.35042720612512
H         3.04942580761871    6.23184228423149    4.18578697149346
H         2.54045767021028    5.29838314386114    5.61279207159115
H         2.10008922434917    4.75270669985250    3.97603866067170
H         2.58877145622128    5.55341456313779    1.18787877716369
H         1.94550299026032    7.87592033049193    0.86834141348595
H         3.55570019456583    9.68575186800877    1.45347211491850
H         5.73815377730972    9.11452464563100    2.31220227460821
H        10.14038340143132    3.94253012691804    5.16005966841074
H        11.00448209591743    1.64076793659714    5.19337418949230
H        10.46336663757748    0.08732095255309    3.35352882410093

