41
CSD_code = FOBVIB | q = 0 | S = 0 | Stoichiometry = C16H18MoN2O2S2 | MND = 6
Mo       -0.48393491538451   -2.55205719856160    2.97632618157707
S        -1.49439976467110   -4.67742935115341    2.36284310583626
S         0.95672786053293   -1.04110974134069    4.22319562430478
O         0.15296894496057   -2.29761552045850    1.48705290586637
O        -1.85707769168965   -1.74522413627898    3.36595744583913
N         1.49636943856921   -3.91892110614458    3.35012076425555
N        -0.77187698495358   -3.63059798817150    5.14110404383811
C        -2.17945296809399   -5.22443864353982    3.88081712701160
C        -3.12596882379886   -6.24965486752075    3.85000522878064
C        -3.63271923064368   -6.77451902750365    5.01886384075532
C        -3.18017080036021   -6.29605751335752    6.23863593740683
C        -2.24209024969056   -5.28110058530585    6.27589963193799
C        -1.74437670313244   -4.71662612757767    5.10588234961152
C        -1.25214105638139   -2.59580738395387    6.07232998686194
C         0.52913763254365   -4.15696839163976    5.58762082193944
C         1.21251748350670   -4.87962603745756    4.42972852274072
C         1.76568862853162   -4.62949368128618    2.08862600215998
C         2.67242842796696   -3.13203520896255    3.70259990017746
C         3.94420600629009   -3.69579649402553    3.71215854760000
C         5.05959622165989   -2.94095930049125    4.02425296130823
C         4.91886964234763   -1.59925583569189    4.34327730977847
C         3.66319151659317   -1.03280159220042    4.37127329521248
C         2.53298915468005   -1.78969589941754    4.05831912855135
H        -3.44518453644489   -6.61448819616558    2.88690489834558
H        -4.37172213968059   -7.55977458959383    4.98292466902384
H        -3.55660854231657   -6.70827692198375    7.16192299324338
H        -1.90249776530878   -4.92967787204483    7.23874765854166
H         4.08014386154536   -4.73957411324616    3.47103875191941
H         6.03513639501834   -3.40175815236965    4.01462976807952
H         5.78641248500693   -1.00208715192188    4.57738010039174
H         3.52127218964074    0.00314045163169    4.63440888598141
H         0.40317756301664   -4.85055540661104    6.43151113569093
H         1.15724937302826   -3.32092660073713    5.91844631129995
H         0.54941532015656   -5.66371322410007    4.04444572859566
H         2.13800127058877   -5.35382116469809    4.78696203869966
H        -2.24546570632934   -2.27900038473547    5.75643874716620
H        -1.29448877708166   -2.96165582149343    7.10216273866854
H        -0.59122243159632   -1.72872620139571    6.04303754102420
H         2.03413938633596   -3.89669144986467    1.32846430617593
H         2.57402867937644   -5.35841465447053    2.19575275736751
H         0.87023160566139   -5.15550691415924    1.75553030643422

