21
CSD_code = FOBXID | q = 0 | S = 0 | Stoichiometry = C5H9AuF3O2P | MND = 2
Au       11.73735396628003   -0.19647456715885    3.87575065134663
P        12.73193642805429   -1.18180006176678    2.13949849683907
F        12.25608647653014    2.10166658180526    8.28479750629349
F        10.24142777223244    2.37295455590837    7.58526555384786
F        10.80512874646307    0.53216315386046    8.55187904225965
O        10.68637980178372    0.74098593156105    5.50521087700861
O        12.77910327811576    0.49072899438772    6.15797311406181
C        11.62412721010521    0.85006681994626    6.33206657828235
C        11.23018849979464    1.47690726334398    7.69404751652834
C        14.54802131109722   -1.07282429857616    2.16515330212680
H        14.98224135677767   -1.59386595382515    1.31069670868336
H        14.83804839090664   -0.02318148968445    2.14612808523514
H        14.90943649609165   -1.51391469455352    3.09317075740043
C        12.42244964151678   -2.96971271320308    1.98055207588693
H        12.95578727490930   -3.37779127886684    1.12099632740091
H        12.75701672613220   -3.46556565756625    2.89074683956366
H        11.35259992466552   -3.13680122795484    1.86356591891549
C        12.29174847840222   -0.53456173803709    0.49424370568333
H        12.83120890629498   -1.07247120717588   -0.28630809769080
H        11.21887067070852   -0.64586606073424    0.34408151078071
H        12.54303864313816    0.52425764829019    0.45198352954770

