52
CSD_code = FOBXOJ | q = 0 | S = 0 | Stoichiometry = C22H21AuF3O3PS | MND = 2
Au        6.31807569832270   11.70428438416485    8.11052383120554
S         3.72924189826824   10.89688747064529    7.20534550302705
P         7.72560677806805   13.08787490534398    9.17133289732055
O         5.07471907322195   10.30006757094408    7.07192887097442
O         3.80819992521358   12.22534816444468    7.77864869173268
O         2.86736041105250   10.70457276640251    6.09165793326353
C         3.01316634167398    9.86443319810553    8.60079688365426
F         3.82861120627106    9.93549985251424    9.66518515104802
F         1.81557414714802   10.29827250494360    8.98813509941371
F         2.90193022006516    8.58009231747365    8.27090957119532
C         8.62752896664553   12.30513558888708   10.54026959931783
C         7.92563203106891   11.54361744481301   11.48593435621937
C         8.64726461761165   10.91750335460777   12.49450460839456
H         8.11694670233828   10.32656219839705   13.22699324523519
C        10.02291596798713   11.03822670053094   12.57960611696645
H        10.55888691966929   10.54172513337720   13.37432650486565
C        10.70816723758244   11.80140830655600   11.64957599018974
H        11.78010931559214   11.90997728434410   11.71450516862056
C        10.01275217401274   12.42801815039153   10.63298863226453
H        10.54604147464841   13.02517575390079    9.90679239649483
C         9.02876722897197   13.79439711844763    8.11965256589033
C         9.77099584518580   12.96376626709345    7.26763301387498
C        10.72666139942160   13.54649263395003    6.44533886338260
H        11.30354540277922   12.91596291622684    5.78436915111455
C        10.95429137276324   14.91134061627385    6.45818061709437
H        11.70452505349002   15.33812497865550    5.80982181115533
C        10.22246560167167   15.72525965501337    7.30572664665924
H        10.39770031566472   16.79009098768146    7.32764603838461
C         9.26168982495907   15.16846641863769    8.12832649229397
H         8.68862438366794   15.80276483484679    8.78972652919511
C         6.92629361950809   14.53222014327097    9.93082761282893
C         5.99795437675117   15.28225486467345    9.19522348885832
C         5.36810841103283   16.34802040142193    9.82677140526255
H         4.64702387415632   16.92987524369776    9.27162546119095
C         5.64381827757606   16.67437807679589   11.14227294997628
H         5.13866921465597   17.50719571500141   11.60788833875317
C         6.57177578608001   15.93656538960407   11.85800287670672
H         6.80012398568036   16.18961164772628   12.88223675773081
C         7.20630927866906   14.86783394101826   11.25475793094444
H         7.92941496972299   14.28926220532854   11.81251739936120
C         6.43982736857543   11.40313010463695   11.42984546542997
H         5.96264451826513   12.34817666782737   11.17148055941238
H         6.15389208691852   10.67017806756114   10.67224359054192
H         6.04931074678855   11.06532138665503   12.38677965825941
C         9.55474326724712   11.48575244360021    7.23780999936239
H        10.36981564434393   10.98868227807474    6.71730229857555
H         9.48268536904041   11.08174989203670    8.24758763937916
H         8.62083458172479   11.25015408298672    6.72154134448928
C         5.68067439040596   14.96414500183612    7.77227580053672
H         5.27165716989815   15.83639208760284    7.26725047031770
H         6.56985086309366   14.63253295804886    7.23487913323480
H         4.93397466482767   14.16771792297953    7.72709703839865

