71
CSD_code = FOBYOL | q = 0 | S = 0 | Stoichiometry = C26H32CdN10S2 | MND = 6
Cd        1.41491943603572    3.66676626939503    7.26213887115526
S         3.22138404895931    3.11326599279461    2.98376961922967
N         1.55533585786112    3.63300543501583    5.13139511274876
N         3.62045119283320    4.62521336661553    7.41067709850342
N         7.45481454201771    6.19256938778762    7.85468439167261
H         7.80946469088614    6.29241073545781    8.79051202198703
H         8.13607314950276    6.03059921664576    7.13384009623348
N         2.34188309067096    1.51115124707476    7.34610187520272
N         3.71487764195898   -2.41722747989373    7.38908851925399
H         3.50919907311487   -2.97410781210607    8.20060110525568
H         4.54877599714066   -2.65265502529624    6.88078717842145
C         2.25897028907834    3.40516464570833    4.21916847362817
C         4.45109547837979    4.73071991738910    6.37659624783623
H         4.06400955022134    4.40376503147157    5.42076323132388
C         5.74116260410386    5.22211652457123    6.44743589774158
C         6.21284503315603    5.64310445766483    7.70411188551828
C         5.33668301515243    5.53634864137341    8.78814453041445
H         5.65761956351669    5.85043413210769    9.77039509783552
C         4.06883539606950    5.02884037814401    8.59528883047823
H         3.37764529301477    4.92977708335865    9.42184682520979
C         6.60126662703328    5.29994004097901    5.22223937044477
H         6.05212714154726    4.93338637624445    4.35951264928861
H         7.50036112655778    4.69238913348477    5.33712117442229
H         6.90501747517760    6.32871216999965    5.02878855886988
C         3.23865278715804    1.08330371761324    6.46182326521360
H         3.56809020675019    1.81031660495939    5.73130939860443
C         3.74822729799088   -0.20076943448654    6.41850716748956
C         3.29685418158349   -1.11757448905410    7.38606044670878
C         2.35450522431947   -0.66359604326861    8.31398975010328
H         1.98018889040469   -1.33625367753274    9.07149925321799
C         1.91007981995319    0.64024662369932    8.25230142455083
H         1.18730518276904    1.01441993974930    8.96577651125336
C         4.74209748935657   -0.59983136688297    5.36989366230271
H         4.90561913516206    0.22455175748236    4.68181245462375
H         4.37659208708601   -1.45427979919983    4.80093656138648
H         5.69963452863966   -0.86883035019026    5.81921518157533
S        -0.39558806123332    4.23190513606149   11.53789076706442
N         1.27261678999449    3.71076723728385    9.39244886725813
N        -0.78984334476683    2.70745683257014    7.11381088830778
N        -4.63854687023947    1.17654918185259    6.66709644514914
H        -5.00074080238153    1.09795307701081    5.73214202026394
H        -5.31332944547339    1.32803130633194    7.39625656673365
N         0.48777382866847    5.82247131825422    7.18039160943075
N        -0.86497430420021    9.75789490269839    7.16420804272295
H        -0.63972966079604   10.32486327452269    6.36496694962367
H        -1.70814155540202    9.99054813737564    7.65829143721831
C         0.56776391841900    3.93992261299348   10.30334411322366
C        -1.61340560531066    2.58644309805097    8.15187288432049
H        -1.21681395688794    2.89138308836785    9.11111635659467
C        -2.90773795266130    2.10644348166311    8.08074246080652
C        -3.39170539706077    1.71428479141312    6.81940609648326
C        -2.52298739750968    1.83720370254070    5.73109096384252
H        -2.85354526645421    1.54553205464043    4.74512228455604
C        -1.25018504477095    2.33193373208099    5.92453833585761
H        -0.56447491977073    2.44299770502286    5.09495667343089
C        -3.75981645242558    2.01118375496195    9.31030540349607
H        -3.20377118429690    2.36187538911588   10.17520197642727
H        -4.65756778011635    2.62351053669879    9.21149516823261
H        -4.06584139407508    0.98038406556264    9.48888004058147
C        -0.42545573588560    6.24220002475568    8.05157104348481
H        -0.77402343636968    5.50622264721169    8.76414540965294
C        -0.92944599940692    7.52822159077836    8.10252869084153
C        -0.45337843063453    8.45620300799991    7.15770228528594
C         0.50605052764483    8.01058431501443    6.24334139125653
H         0.89945445631672    8.69193044951417    5.50347808416963
C         0.94287457352423    6.70379385865378    6.29599275043210
H         1.67890645937564    6.33602430505903    5.59275844995326
C        -1.94273731566232    7.91817450545626    9.13585398023235
H        -2.12488691642147    7.08525557454245    9.80879129180577
H        -1.58427698365956    8.76234429784749    9.72428564765357
H        -2.88925348502210    8.19911365644375    8.67074088222850

