105
CSD_code = FOBYOM | q = 1 | S = 0 | Stoichiometry = C48H46AgN10(1+) | MND = 4
Ag        1.66227603713673    5.12445249237317    1.74757459588205
N        -0.27821509391095    7.00538140360304    4.95433939500549
N        -2.37721490375826    7.06616360113310    2.41080295814936
N        -0.41941322593293    6.22642050665319    1.77054228236487
N         2.68825374040133    6.97218378555931    5.63885454884539
N         2.73479650734466    5.82754014715193    3.73295077604995
N         3.88450848150842    2.34028042038242   -0.47066194343784
N         1.57269422817250    0.80318187770356    0.77182401839629
N         1.21304046154586    2.80164099213580    1.67815844726258
N         4.74989004437826    5.32905917014038   -1.56755244197024
N         3.10888420848251    5.49296006832543   -0.07469016864562
C        -1.52889512262797    6.87477979504778    5.60236910030984
C        -2.09641330119192    8.01991698857534    6.16081444781396
H        -1.57450608117433    8.96260249864253    6.08193480092254
C        -3.30616545223568    7.95208007232132    6.82364049042670
H        -3.73073611466539    8.84587176665002    7.25475835196191
C        -3.96626634620312    6.73970508539824    6.94674515898430
H        -4.90882532536297    6.68582050616818    7.46843052802157
C        -3.40283426682840    5.59731438828555    6.40604471970748
H        -3.90878932246722    4.64818907025640    6.50076004532608
C        -2.19289340892284    5.65908820325164    5.73574067834506
H        -1.77585364680573    4.75876725544693    5.30987131563089
C        -0.30667002165640    7.75488293126082    3.70307662544921
H         0.72556636683542    7.90693353241020    3.37798096324042
H        -0.76254405861474    8.72865935757615    3.89048277039334
C        -1.03079351536063    7.03066477844678    2.61082797293995
C        -3.38188471136169    7.84329576298169    3.08262885157453
H        -3.93169923346570    7.22920717680400    3.79983527533348
H        -4.08150007169792    8.23459160511634    2.34323547314290
H        -2.92931293875037    8.67610068114081    3.61510362493479
C        -2.64251087335016    6.21071344204945    1.36538502773386
C        -3.82045575873120    5.82549470574478    0.74072952528901
H        -4.78002197311970    6.20913509039596    1.04973429049229
C        -3.70995824996180    4.91929772587448   -0.29351860121342
H        -4.60231484354505    4.59122583134058   -0.80367930065410
C        -2.47215168314496    4.41421047232149   -0.70327872260303
H        -2.44298978272773    3.71216203868804   -1.52238916520758
C        -1.30042240960565    4.79395702100094   -0.08801932178601
H        -0.33435155159769    4.41950925385676   -0.39405852432911
C        -1.39470625036900    5.69575645451808    0.96515463298468
C         0.56955491912809    5.82592689176668    4.92121624705556
H         0.33150332562806    5.12955294773472    4.09937677765283
H         0.44992862718742    5.30261422243474    5.87447601163644
C         2.00084854113022    6.21098526233347    4.75176890459719
C         2.19622853534678    7.55133083407525    6.85858636322381
H         1.11224978177275    7.62933513227316    6.81295541627557
H         2.62225755423518    8.54671482296335    6.98276355925220
H         2.48135770805532    6.93948141245063    7.71796212317778
C         3.97194776351778    7.07853485451814    5.15608636936981
C         5.10341001197219    7.72682473788790    5.62997565757210
H         5.09473703249444    8.28137259999252    6.55514082831208
C         6.24739959377283    7.62518143435794    4.86582137212013
H         7.14933367656600    8.11517103187277    5.19830088885921
C         6.27195965297341    6.89836531678298    3.67240019151332
H         7.19331615281016    6.84724956049300    3.11283998239760
C         5.15333248688014    6.24878430043877    3.19884859449930
H         5.16814163481458    5.68561408786689    2.27935584408735
C         3.98711445312410    6.34807956689542    3.94907350892852
C         5.25248797499384    2.15797318707130   -0.78249438573440
C         5.56831795504933    1.56787036568917   -2.00617122462350
H         4.77157369904467    1.27063897054606   -2.67261406284261
C         6.88486298181671    1.34748552181108   -2.36031072935944
H         7.11357535887208    0.88635208860114   -3.30902156703449
C         7.90793094742986    1.70471525402101   -1.49628979599644
H         8.93619240673703    1.53089876228712   -1.77193437367873
C         7.60125765732080    2.27804561327896   -0.27480663402347
H         8.39227204465539    2.55709844827039    0.40508532460914
C         6.28372423740516    2.50718909181000    0.08404818616550
H         6.06565906523021    2.96715007489138    1.03626404601100
C         3.53002558390599    2.37104256578578    0.93788517236120
H         3.66562699969243    3.35936258917243    1.40929870550691
H         4.15982789194047    1.64241012110843    1.45677371602311
C         2.09701472123875    2.00187651775395    1.12831039616779
C         2.26040611551465   -0.30427683403792    0.16699782663654
H         3.15342833384882    0.05491892611082   -0.33987767142125
H         1.60422043085716   -0.78368825980154   -0.55893911854155
H         2.54281371634560   -1.04104173162644    0.92325993020119
C         0.24510982514192    0.83069936321267    1.13095439828094
C        -0.77913573852617   -0.09790836182962    1.01417081965826
H        -0.61599060168683   -1.07202773439353    0.58057591020360
C        -2.01992420813702    0.27811055414251    1.48524357717980
H        -2.84398230802095   -0.41459413097002    1.41318731445886
C        -2.23803032888918    1.53288736939709    2.06052369705162
H        -3.22702967944173    1.77748763407953    2.41653613395192
C        -1.22440936108992    2.45754243289205    2.18318041668615
H        -1.38899312902879    3.42632220021831    2.62708981899760
C         0.03150214417597    2.10215441061149    1.70429383178528
C         3.19971643708750    3.34297557696057   -1.27990489892351
H         2.13287661336626    3.29166023890606   -1.04904594616009
H         3.34310925744393    3.09699956547918   -2.33343088274435
C         3.66976477424445    4.73442017034989   -0.98946896587412
C         5.59504356286335    4.85797333450132   -2.63001153735387
H         6.54969284275127    4.50096845281191   -2.23640708228443
H         5.78348055064806    5.67798985702950   -3.32396635384723
H         5.11617007607192    4.04385894141615   -3.16830090057286
C         4.88897920416693    6.56056715421219   -0.96814164748929
C         5.81084049550100    7.58593260880109   -1.12637221903473
H         6.62398162521955    7.51612386945846   -1.83161551511824
C         5.64401310625471    8.70200315551848   -0.33275082505484
H         6.34073472530795    9.52094826296695   -0.42279461444281
C         4.59344984023975    8.80583626039073    0.58421975884745
H         4.50667819547159    9.70423667582097    1.17574281762317
C         3.67638691372653    7.79162800568127    0.74556053394806
H         2.85619791380936    7.85396557342479    1.44625351757105
C         3.83832714150509    6.65380031140159   -0.03561703974492

