81
CSD_code = FOCBAA | q = 0 | S = 0 | Stoichiometry = C34H28BF15Si2Zr | MND = 11
Zr       -0.90509272037741    1.62111710192936    3.90964956981537
Si       -3.66351907675051   -1.00329113201905    3.02193892538726
Si       -1.54423016174606    1.89365264398705    7.66758633791582
F        -0.50157635898961    3.84837793844549    4.56830093981548
F        -3.69496612522075    5.73698984381467    3.81825062238569
F         0.31798736921821   -0.82554685635189    5.15470197384625
F         2.78742825090445   -1.63888378115071    6.19061224256421
F         0.89185632206679    5.83451328240645    5.80612622403160
F        -7.54584426316066    5.18847043493153    1.16597255777205
F        -1.85789499555924    6.92614228516451    1.23946116945345
F        -3.55271529537225    3.01643167524930   -0.04118317720153
F        -0.48420746962024    8.89894270309277    2.48069321697396
F         4.81922390935138    0.18468294584711    6.34056277823447
F         1.95812257188159    3.44482102808899    4.42204835466915
F         4.43574967215535    2.72845798087043    5.43191487597636
F         0.91320187136412    8.37836402911619    4.76158604911766
F        -6.14800900221753    3.53352333827402   -0.50342004639305
F        -6.28640515335370    6.28241143148341    3.33722080845870
C        -1.30011737368946    2.86289300670181    1.87327685900701
H        -1.85196466337111    2.06365452118445    1.36768843070989
C        -1.18574713572096    5.33100728044259    2.83895925947397
C         1.35761550439073    0.06025438480446    5.32671087365482
C        -2.31389277456825    0.28018477308339    5.30851193120875
H        -2.03724166872977   -0.66261021580625    5.76091688326291
C         3.42204142079655    1.85788378493530    5.42393422793045
C        -0.46633769048254    5.12904845781719    4.00624248110012
C        -4.26850686675197    5.21834528517024    2.71182870348926
C         1.07046994698597    1.35372767445511    4.92148308745734
C        -3.02614637702739    0.41367187635550    4.08686533979380
C         0.23991870240040    7.40209660093145    4.15138581070446
C        -0.47732384864973    7.66351515853304    2.98409519413771
C        -3.40457426036923    1.78226702694866    3.98898568323388
H        -4.07136938666040    2.18383994219626    3.23718584642710
C        -2.91969213870569    2.46940554008723    5.10980727707857
H        -3.12424385610960    3.50440188896346    5.35876215267948
C         3.62310117906277    0.55460785647866    5.87682350785720
C        -6.25423875689972    4.93596637143754    1.39450369075899
C         2.16271909991274    2.20918534545962    4.95268233649756
C         2.58419623885158   -0.37336891895088    5.80917537189603
C        -3.50569346909511    4.39685410317126    1.87815276007259
C        -4.19748050901756    3.84239604506350    0.79889304094837
C        -2.30012747210031   -2.34214655537181    2.89193329374007
H        -1.89242932196636   -2.40870299111864    1.88834094794050
H        -2.70028382969073   -3.32039784047319    3.13729854768132
H        -1.47512547204543   -2.14337040710661    3.57217456865478
C        -2.21970683071891    1.55032334950827    5.94363999927915
C        -5.21156664442170   -1.74257172571576    3.86234859477629
H        -4.97602067020469   -2.14467399897630    4.84288615032766
H        -5.62883364647578   -2.54866981053265    3.26720470333101
H        -5.98832141933271   -0.99559617556481    3.99389587229176
C        -5.53843042884786    4.09660694989484    0.54642383113765
C         0.23815785881079    6.11322273226665    4.67762008639553
C        -2.99215929524758    2.36468603193917    8.81984528246202
H        -2.63526105296543    2.57233033083377    9.82331372965598
H        -3.72158869888244    1.56382062689151    8.88902037317227
H        -3.51189585029085    3.24986387626193    8.46714311899120
C        -1.17587194570461    6.64057667302146    2.35495544071704
B        -1.97399078782341    4.13854073663770    2.15496922937788
C        -4.15377009411379   -0.32365759937666    1.30299359605660
H        -5.01250897523096    0.33685548265234    1.37377799198112
H        -4.43261351190557   -1.13569855899132    0.63937636175027
H        -3.35630788272808    0.23119903499882    0.81575108966039
C        -0.28599113601321    3.33242554432969    7.61643364675461
H         0.14892438899655    3.49361984163577    8.59766215520335
H        -0.76083609011188    4.26502461245503    7.32687855885042
H         0.53396571289378    3.14256578098318    6.92708908053629
C        -5.60944159641802    5.49512877488199    2.49348616215047
C        -0.68496123991437    0.32276752400590    8.33313245612273
H         0.14146814168024    0.00654812506927    7.70478147565892
H        -1.37856286364755   -0.50749989714670    8.41067720763617
H        -0.28643560494111    0.50237715680604    9.32567354019252
C         0.69041739199276    1.37719043126512    2.00045333545671
C         0.14539679202089    2.64132278391764    1.91620457127690
H         0.80217264675875    3.50274940620107    1.80362544897516
C        -0.16967294972941    0.22866840892921    2.29756394128736
H         0.38800410149932   -0.70642390419637    2.37983804857439
H        -1.00867159358286    0.10504596306420    1.60274891759239
C         2.17881068399531    1.17358585759437    1.88554042640477
H         2.73123542577037    2.09129516809918    2.08203511749189
H         2.41243351517627    0.85831987640681    0.86640696732335
H         2.52989958433923    0.39124370137524    2.55926196092112

