101
CSD_code = FOCDEI | q = 1 | S = 0 | Stoichiometry = C47H47ClN3P2Ru(1+) | MND = 6
Ru        3.57250309525373    2.77247937974028    3.69686911122313
P         3.61249453642927    2.00422161622898    1.44943516583614
P         5.85431471686059    2.28701779083386    4.00038205712080
Cl        4.51655977324884    4.80200178054018    2.85604717776993
N         3.51857049254657    3.47143869569122    5.59148068084724
N         2.70934098744505    1.23358570659624    4.60413110666438
N         1.63171596462714    3.60410481751593    3.47018283601746
C         2.58918133559462    1.33712062381060    5.95034351722863
C         1.57144469911317   -0.88597645771719    4.67978832956489
C         3.92587870014535    4.66934841354791    5.99248019681415
H         4.27366856339508    5.34533218487217    5.22103083956678
C         2.07109870895972    2.57069572485608    0.65312014841227
C         4.86016969706298    2.76449359297071    0.30222661156934
H         4.38884176967863    2.82799310140683   -0.68418000565483
H         5.02816238978798    3.78468066535461    0.65416355509219
C         3.95055874451782    5.07092588090920    7.32060177801975
C         3.73247869187601    0.27544296759164    0.85323271107379
C         2.17543784821906    0.16305588488320    4.00857735877252
H         2.25329922804832    0.13485777379158    2.92885807608104
C         3.08477449650245    2.58581422175523    6.51044861607284
C         3.58885010094297   -1.30260141536271   -0.95790104908072
H         3.35255318075517   -1.51919315470100   -1.98876983738837
C         1.99327664000718    0.32327038976495    6.69993331457413
H         1.91944127491027    0.41916444755366    7.77033173058010
C         4.20929155696932   -0.73814305010891    1.67731811315992
H         4.46798944520241   -0.51735672274563    2.70487127776700
C         3.43357035315503   -0.01624602540170   -0.47519587374779
H         3.07539546327517    0.76450610360803   -1.13124863614987
C         7.09794693256755    4.58196020094862    5.05954382565448
H         7.10822341391288    4.96808295592844    4.05161703531818
C         6.50064147139176    0.66244221775664    4.55042667411319
C         1.01879412165013   -2.05723485982636    3.93905035226541
H         1.34919651155851   -2.98620527723900    4.39898837003188
H         1.33246697648786   -2.04700098971056    2.89835510373511
H        -0.07023202479486   -2.04343598922266    3.97594915105734
C         1.49862349184149   -0.80083684530953    6.07240855115497
H         1.05016986238018   -1.59749272042504    6.64451430991959
C         3.53237609999168    4.14568191460834    8.27537764307488
H         3.54990658798048    4.40141455097511    9.32353518586054
C         6.57031238415442    3.32131808586138    5.31913379151772
C         6.94619533892493    2.63629549991359    2.55539208028083
H         6.67272057414543    3.61300989699028    2.15487966205628
H         7.97413699739572    2.70921918249789    2.91986267371451
C         1.00039251662199    1.71599134782459    0.40846550511283
H         1.09040866505326    0.65848861497493    0.61900443160401
C         4.36694946862192   -2.02425660336534    1.19189701052667
H         4.74077090841073   -2.79997953068318    1.84346218867326
C         6.79948642447849    1.54281720604758    1.48980647565052
H         7.77661768460581    1.10701749997871    1.27255811054323
H         6.17452298550071    0.73587106888177    1.88452318767770
C         1.92856913656957    3.93244352012189    0.39254745453078
H         2.74454164148394    4.60774166987861    0.61165381223709
C         6.19073530325505    2.01942620014262    0.17202384742383
H         6.05219332027468    1.14167167633701   -0.46430641635546
H         6.89575796949092    2.68347405805428   -0.33446690526045
C         4.05246749978026   -2.30970493262141   -0.12598330195910
H         4.17418095335918   -3.31194283387029   -0.50695081644392
C        -0.70237293680575    3.43721453465992    2.97337954762421
H        -1.53887007096280    2.78537746910219    2.78326262207331
C         0.28282881776347    5.56713920701185    3.28621757178595
H         0.24033031897140    6.64429344886849    3.32911477524282
C         7.48683813535016   -1.78822698437542    5.43908090955898
H         7.87061785872918   -2.73892138320688    5.77598367140441
C         7.55961778632292    4.87577961022333    7.39809826845242
H         7.95300639716029    5.47681262583791    8.20397330823831
C         7.59340044523379    5.35106276709058    6.09799867005609
H         8.00876956481212    6.32572668812312    5.88976962413870
C         1.48211071940488    4.92952469131234    3.52389744948897
H         2.36358850014175    5.51787870637244    3.73985354292710
C         6.52783984871644    2.85307166879385    6.63106430179108
H         6.11070216638160    1.87509988599248    6.83781607568006
C         6.12404609892565   -1.55026249130737    5.43449020795563
H         5.43670856008892   -2.31090772949904    5.77510526991252
C         3.09489691956211    2.90212308044456    7.86838880329597
H         2.76816120689402    2.17904419973161    8.59731091757049
C         8.35831297945703   -0.79504167162334    5.02032333111669
H         9.42340112604958   -0.97035168141631    5.03692983819082
C         7.02208830532496    3.62641222105570    7.66380030030957
H         6.99238199573817    3.25224179940312    8.67655386043304
C         0.74546946156397    4.42233795501151   -0.12781572722473
H         0.64422037211540    5.47807396344144   -0.33028769222505
C         5.63739295216691   -0.33131639211477    4.99476760401439
H         4.57376120121792   -0.14794305094286    5.00690865835732
C        -0.30881898432390    3.56200276830503   -0.39041553776259
H        -1.22956577348314    3.94626045937320   -0.80240274778886
C         4.40079320180522    6.44013005164623    7.69971196592935
H         3.54107499457283    7.05138214869919    7.97492016838726
H         4.91705470548607    6.92162335644969    6.87415604409008
H         5.06505735008734    6.39772364381118    8.55966871976467
C         7.87195781932566    0.42313149277587    4.58526408753427
H         8.56650179613066    1.19245966981050    4.28355920502480
C        -0.85687725902444    4.82586774233067    2.96893164959899
C        -0.17828032635883    2.20996518918564   -0.12196063253760
H        -0.99702541252554    1.53547165996320   -0.32524362020088
C        -2.10739843695419    5.49787907895427    2.65758879161683
H        -2.13796371896276    6.54788845393276    2.91707071255209
C         0.53422530618392    2.88403815890127    3.22037745428435
H         0.64155423772381    1.80747654159652    3.21052364543115
C        -3.15366261596303    4.93566953447225    2.06266298853281
H        -3.16024513001943    3.90360919664114    1.75547353163003
H        -4.04356615561791    5.50036599200818    1.84689996219751

