45
CSD_code = FOCFOU | q = 0 | S = 0 | Stoichiometry = C24H13N2O5Re | MND = 6
Re        2.03261918297533    3.18385203322837    5.86724175475097
C         3.27108543945905    4.04274561849163    4.62649087676855
C         0.87063104925875    2.66435112997898    4.38766557845862
C         3.00867525174214    1.48089574083958    5.88407948973845
C        -0.37280052914661    1.79412297726342    7.27303003821291
H        -0.61339153566486    1.52133509113992    6.25328315187997
C        -1.20467780216164    1.41648575123502    8.30792092156982
H        -2.09776014305435    0.84970756395163    8.10152979073247
C        -0.86464298073332    1.77905056557126    9.60419865112264
H        -1.48654033023570    1.50003918359753   10.44033325661165
C         0.29164014566405    2.50671171061354    9.80112367230622
H         0.57696776548426    2.79662539101125   10.79863377843987
C         1.08374884072739    2.85940324262420    8.70828984045204
C         2.32238278985785    3.63306241420279    8.83131860049046
C         2.78858577549135    4.14007853271365   10.04448463971710
H         2.23302516431476    3.97836654235750   10.95317896003320
C         3.96449489884242    4.86223864476975   10.07975412949622
H         4.33452931469897    5.26301476325529   11.01063525099329
C         4.65569861040568    5.05855168446203    8.89178385995138
H         5.57979384529911    5.61263426353485    8.86686551529144
C         4.13498828400676    4.53276321222144    7.72618391213210
H         4.65225443102791    4.67505288735076    6.78576354770731
C         0.97830375171559    4.98640451012025    6.09524451296240
C         0.39433762556546    5.98076091152954    6.46678761221125
C        -0.30238459288457    7.14895674868491    6.85882690229225
C        -1.56325684466328    7.43566168589630    6.30896412786217
H        -1.97856279835965    6.75664859881755    5.57916590502125
C        -2.25888849975698    8.56020126766643    6.68491596533794
H        -3.22688875194744    8.78919415937732    6.26797521217547
C        -1.71030030654882    9.43323682590241    7.62440620194491
C        -1.98012890176760   11.44185067251906    8.87781047611521
C        -0.66985338164612   11.19461083104905    9.46365462939770
H        -0.33092684503287   11.93361010465658   10.17173035646527
C         0.05753967199433   10.11229131695114    9.13455730239230
H         1.03006689567995    9.93208815165174    9.57218324550538
C        -0.44913460108982    9.16791908974559    8.18322325870735
C         0.24163657772771    8.01992094824000    7.79199532002621
H         1.21370152821712    7.81621512269061    8.22011056397779
N         0.74832872805198    2.49481181980946    7.45156224781399
N         2.99707643245031    3.83822878107675    7.67902441325875
O         4.01506406173897    4.59490681598032    3.94740392045242
O         0.12827638522508    2.36957527672463    3.56229963413626
O         3.57298301773646    0.48746502805062    5.92269133803822
O        -2.43091106100228   10.52693237529569    7.97031588004840
O        -2.68588555966337   12.38532001315104    9.13826175699929

