48
CSD_code = FOCGIP | q = 0 | S = 0 | Stoichiometry = C19H23N3NiOS | MND = 4
Ni        9.00561790815572   11.31271155488770    1.88269322666835
S         7.05871572731649    7.85794162795376   -0.15984632889623
O        10.30123497105173   10.35723446713901    1.06259370607922
N        10.22795030854366   12.62916243014179    2.45601054150226
N         7.53409413828996   12.36479673151304    2.81259810047831
N         7.74914473754029   10.15356513874646    1.19631654344503
C        11.50176120203260   12.71664861127618    2.17687880235944
C        12.22407188048983   14.02576278007502    2.36794502807112
H        11.58379230457498   14.86062772176642    2.09007156655834
H        13.11171130658385   14.06931521416516    1.74636767837527
H        12.52024459604937   14.15134268161688    3.41012122385226
C        12.24838034250545   11.59885674747627    1.68272291887561
C        11.57227378772504   10.46886678657593    1.15455311401427
C        12.35768844216078    9.37412616316066    0.62186666153556
C        11.71638009199346    8.25896551724139    0.06036869486451
H        10.63733468747628    8.24338209465011    0.04289130900224
C        12.45031534733301    7.22033626142736   -0.45404366224747
H        11.95170173277508    6.36601895815501   -0.88664894672763
C        13.84698702821085    7.26486994051485   -0.42070477486230
H        14.41727828914391    6.44303308218535   -0.82954207903533
C        14.49276973644954    8.34331711347378    0.12841073398660
H        15.57281435050487    8.38062458972465    0.15653229743126
C        13.76621705974845    9.42094755929976    0.66134887829667
C        14.40081382343177   10.54759072584195    1.24656748570506
H        15.47894562095109   10.56044926132851    1.31064379583652
C        13.67136152287961   11.58542942643155    1.72361726914691
H        14.19106366034605   12.40745886702742    2.19136304573154
C         9.54556807620750   13.77261058903534    3.04611550572467
H         9.31759903752833   14.52268391364013    2.27607089184148
H        10.16733076185256   14.25248613683396    3.81153075192375
C         8.26272418041679   13.27653198803144    3.70774093415090
H         8.54463525999102   12.71247445890046    4.59834733914565
H         7.63768167985155   14.12162782709418    4.02025525788153
C         6.60243029867304   11.53272112528681    3.59777722709406
H         6.01055513652920   12.16397076990529    4.27224420917541
H         5.93348240981671   11.03990913935166    2.89061178365548
C         7.33573054299554   10.45822511018984    4.39664736949316
H         6.64873960088293    9.65784387729720    4.65518554604848
H         7.76784339535428   10.84460290672924    5.31694550061786
H         8.13706645650878   10.03386393074780    3.77550539402777
C         6.82125809890898   13.08648454515118    1.73703898386432
H         6.40565158296305   12.32933811138081    1.06690206107235
H         7.55735844998836   13.66104933301142    1.16783966651887
C         5.69378467820866   14.02111496957970    2.17749145864812
H         5.25654827859664   14.47003728683091    1.28939213155610
H         6.04874116796825   14.82806424542878    2.81421731140242
H         4.90950702021089   13.48033172328226    2.69920674897370
C         7.54019928229136    9.14984595845982    0.60343709712659

