45
CSD_code = FOCHOV | q = 0 | S = 0 | Stoichiometry = C22H16Cl2N4Pd | MND = 4
Pd        7.93534822474945    0.74794189888793    4.47607075655241
Cl       10.14357631269757    0.76426506700869    4.61250302792259
Cl        7.82711797855261    2.93687597065103    4.65566653512024
N         7.88223908734893   -1.33443948585850    4.47704489046615
N         5.99600126031728    0.41510257182205    4.20880054346227
N         3.63841509908008   -0.95349249148033    3.72354597064494
N         4.26092602639497   -1.13475201441893    4.87196921402547
C         8.86260415154513   -2.18755503472773    4.19724257521950
C         8.65486423165616   -3.55708720952125    4.17748511304057
C         7.38705306770531   -4.04922169761653    4.44517456602931
C         6.36665512279221   -3.15508937739949    4.73923160358062
C         6.65964376941262   -1.80304860382962    4.75771751004003
C         5.64358367061131   -0.69839994017815    5.06021239791875
C         5.39375117820068    0.52099769477798    3.04658903731861
C         5.85439600914740    1.45554855722723    2.07148462811310
C         5.21484126292820    1.58032905998965    0.88725973938701
C         4.04785502803425    0.81111567377370    0.56635885863129
C         3.40247666016219    0.94836153669526   -0.66777588432451
C         2.28547965307860    0.19987358101908   -0.96565583459823
C         1.78650289262847   -0.70976313625004   -0.03755590712341
C         2.40720770479297   -0.86624845019100    1.18281525197929
C         3.53457462693538   -0.10863517104063    1.50424325728374
C         4.19772753220506   -0.24797080770862    2.77918181464231
C         3.52381349118595   -1.67076125063568    5.92770058081855
C         4.13668620017399   -2.13081391305420    7.09367804837441
C         3.36573946607108   -2.66127176728630    8.11251037508187
C         1.99083145077009   -2.75433872019082    7.98497072344301
C         1.38175499227765   -2.30855420306486    6.82184878920347
C         2.13583773408395   -1.76706136492257    5.80208789741369
H         9.83070640657376   -1.74351666848765    3.99762810070618
H         9.47287199404664   -4.22119737684851    3.95052442120009
H         7.18936404519012   -5.10985800615667    4.42652630846414
H         5.36668548334857   -3.50064009551719    4.94939916526742
H         5.77386254990674   -0.37154367481698    6.10900410482902
H         6.74738990560080    2.03118135556685    2.31459407194725
H         5.58310329161987    2.26922143980284    0.14134742362393
H         3.79301868313786    1.65453121343091   -1.38600945484501
H         1.79498155859919    0.31705592235100   -1.92038839874621
H         0.91108779612977   -1.29480732502466   -0.27676272032831
H         2.03452925618690   -1.57012625275700    1.91031716339675
H         5.20803984005397   -2.09583409702824    7.21579964164426
H         3.85072215623891   -3.00993749339763    9.01176094594325
H         1.39883647032537   -3.17081388104825    8.78492264298767
H         0.31002759724305   -2.37614976207839    6.71254717505309
H         1.67256908027309   -1.40717227046567    4.89798332928290

