53
CSD_code = FOCJIR | q = 0 | S = 0 | Stoichiometry = C25H21ClN4OPd | MND = 4
Pd        0.65976715741704    1.86848690403086   -0.06321635593899
Cl        0.73226610379798   -0.04031750185512    1.19351620639949
O        -3.66542864581226    2.96009090154589   -2.94850737862855
N        -1.30404697196882    2.17938227493423    0.38262978443213
N         0.32841495249281    3.25406573979611   -1.51297914105370
N         3.14128072887071    2.56508717024476   -1.34396684272300
N         2.56013388942260    1.95417989133614   -0.39624750241846
C        -1.91617576339608    1.88671791026786    1.52751294490623
C        -3.10517395035521    2.49034818750744    1.89848167637781
C        -3.66765115323784    3.43737907987819    1.05590545175543
C        -3.02425703698744    3.74330012200952   -0.13333511709513
C        -1.84087774468406    3.08969917957743   -0.44042029489029
C        -1.10289877531300    3.28964927825543   -1.74216611773013
C         1.18622160462527    3.57759666800534   -2.46724162335593
C         0.80255620153882    4.29072777642949   -3.65151267897636
C         1.69713206565260    4.69000674416146   -4.58494159111704
C         3.08770966998372    4.43145594448813   -4.45259277583023
C         4.01369405417592    4.86097884705687   -5.41495009908271
C         5.35194907973016    4.60035450175974   -5.26205405700594
C         5.79753755310126    3.90297230864841   -4.13695218982966
C         4.90772074866640    3.47067445126217   -3.18479671174551
C         3.53356265199161    3.72252091925486   -3.31804617336300
C         2.58804289831792    3.25580902988974   -2.33323128967104
C         3.42093151008266    1.48414996029512    0.61268693289245
C         4.59743455620943    0.80473956316000    0.31439758085403
C         5.41183112321262    0.36709333428297    1.34266279534430
C         5.06995926017985    0.61986989043889    2.66060105342715
C         3.91191272142817    1.32331221849421    2.95718614728678
C         3.08729272353106    1.76054857362264    1.94021623625834
C        -1.46540410766339    2.08065171618181   -2.64596921535747
C        -2.94145297578266    1.99654648305690   -2.96824706963940
C        -3.41709661551447    0.61201119661175   -3.31126182972559
H        -1.43725629915219    1.13066757274455    2.13986828315677
H        -3.57737998641723    2.22244582627913    2.82995923290279
H        -4.59148805773312    3.92989972301388    1.31770777657303
H        -3.43724059808052    4.46325200120927   -0.82103855200155
H        -1.44133093662527    4.22225116552254   -2.21013428586073
H        -0.23896427862721    4.53160047228575   -3.80032292301925
H         1.35686570328013    5.22787960890312   -5.45911736981906
H         3.65395310668719    5.40198572838501   -6.27883390061740
H         6.06158449351940    4.93279936136619   -6.00511802935724
H         6.85249406832464    3.70356384574871   -4.01785063132889
H         5.24954939712303    2.93561801345714   -2.31304104340225
H         4.84324174286473    0.60635464943057   -0.71818991366893
H         6.31567634124649   -0.17776483510082    1.11364463298947
H         5.70632168487657    0.26979503126571    3.45944141189886
H         3.65259728000427    1.52909716373284    3.98477422865537
H         2.17520764449715    2.32826008129456    2.15162197241438
H        -0.92165687760763    2.17326153326410   -3.59204408672697
H        -1.11723887505275    1.15844440064032   -2.14887194075054
H        -4.41843779037575    0.64847387783705   -3.73174531676676
H        -2.73385263938499    0.13335405130690   -4.00850274923208
H        -3.43793263705206    0.01697146281645   -2.39896755079529

