43
CSD_code = FOCJEO | q = 0 | S = 0 | Stoichiometry = C18H18N2NiO4 | MND = 4
Ni        7.29075734710124    4.65449553762689    2.95952399367155
O         8.83878175590992    4.44286719884198    3.93827536076197
C         9.60498269240862    5.26031703564306    4.50271350054353
C         9.37424422093217    6.67219833848750    4.49617020830436
C         8.27081989798260    7.17706406996344    3.79537266039682
H         8.14081735739441    8.25191094285764    3.81711690055911
N         7.38439300485410    6.48641428788815    3.10971080969008
C         6.34072561959908    7.12136274391616    2.42138276889048
C         6.14934176883369    8.49580567944491    2.29183704404256
H         6.83376735634887    9.20318564873270    2.73245024326295
C         5.07174535760235    8.98247216815376    1.57709835593118
H         4.93359511554461   10.04845962550815    1.48192785832713
C         4.17585366586057    8.11089563830937    0.97965247343976
H         3.33784369012324    8.49721742123107    0.42018586724451
C         4.35174644288253    6.74469470827191    1.08728077004491
H         3.64160489010501    6.09700723133393    0.59829223811767
C         5.43066682128359    6.23161271836508    1.80509131294993
N         5.74375538595081    4.87678119808817    1.98679125962983
C         4.96919554979570    3.92576517456059    1.50867120601875
H         4.07373600449688    4.24185054355572    0.98836924617943
C         5.17858234014906    2.54300832372925    1.59715188310856
C         6.34653574206377    2.05975890035874    2.26748370842344
O         7.18551997029426    2.82057731476237    2.80698592258044
C        10.78876773067664    4.66296887119423    5.20053598812464
H        10.75285851431182    3.58195043581725    5.08818544001611
H        10.78335002225334    4.93471783590629    6.25334294849699
H        11.71087427578831    5.05602765616071    4.77919110150312
C        10.27222746628003    7.59204183302629    5.20617891736265
O        11.28279765482001    7.22785785074432    5.77607982729920
C         9.90563037579268    9.06642699800336    5.22570204610861
H        10.64198959715879    9.58524568445458    5.83494156562426
H         8.91991363155511    9.21963931094154    5.65866147864879
H         9.93140662254549    9.48423723939533    4.22156217737271
C         4.20460153151849    1.61671087458558    1.00564162641006
O         4.32436426743615    0.40742258695162    1.05052608215208
C         2.99151860713057    2.21119215411553    0.31015449992185
H         2.38517575540364    1.38926589638347   -0.06321044227273
H         3.29100943474273    2.83336127351467   -0.53022682787305
H         2.39396549739416    2.79863338455572    1.00365527798502
C         6.64412725935892    0.59455721438423    2.36608960859782
H         7.58297549844574    0.46306024820461    2.89883992798498
H         6.70646542971587    0.15400286598567    1.37405476175822
H         5.83916883015440    0.08225733604421    2.88765840265976

