101
CSD_code = FOCLUE | q = 0 | S = 0 | Stoichiometry = C58H36ClNO2P2Ru | MND = 6
Ru        7.86977649971991    2.09178926505289    7.64495924824278
P         7.46677507742091    2.41980500546838    5.36930592485938
P         7.70563490321758    1.85565530246188    9.94610203820695
Cl       10.08710147525013    1.16915380205989    7.40646676855577
O         8.83291559093898    4.91163906190037    7.90080721377389
O         5.14707258643269    1.29469030856173    7.40958120748408
N         7.10938900523522    0.20540499929382    7.42922686645602
C         5.84312102051193    0.18425225346041    7.19390856748894
C         5.89439015447413    2.42884879740168    7.72721184877889
C         5.25703469438325    3.58575817783154    7.99639464115973
C         8.47251446473709    3.82461230307988    7.80147159532459
C         5.10274444044048   -0.95162221941085    6.63273475124242
C         3.75980479970500   -0.79768189088424    6.28138353364466
C         3.07782634267722   -1.82599638675802    5.66101628706655
C         3.72265811356428   -3.01933363900683    5.37796679224589
C         5.05312491933479   -3.18475844765239    5.72841288236750
C         5.74025108268841   -2.16263140009956    6.35272082685862
C         3.85138901588074    3.90538556104979    8.05930873224633
C         3.49347335362497    5.24617519345881    8.25522851933549
C         2.17156004064609    5.62888662763255    8.30377643987108
C         1.16716326066367    4.68180879969014    8.16742234382040
C         2.82562470765523    2.96146813886818    7.94159746689413
C         1.50221298153752    3.34940588280221    7.99517379911481
C         7.39643561218827    0.94132194660118    4.33992534610548
C         6.61261351296764    0.82901597736882    3.17287025873591
C         6.58187525670575   -0.33378283608125    2.46816139192235
C         7.35980628623836   -1.45347100306091    2.87335091989730
C         8.31910856956189   -1.26835542702401    3.96473381837007
C         8.30237551861872   -0.09957482384560    4.64951943016915
C         7.49591530507596   -2.75200627455053    2.63593381021070
C         8.65182295010160    3.27796702498139    4.31770925640743
C        10.02159193397682    3.20115242379220    4.64702752404578
C        10.98743888260811    3.69245942879305    3.83168711272629
C        10.57851329921138    4.31805112489026    2.57073627110708
C         9.20093073961792    4.34975490863331    2.23214429523542
C         8.27026109426848    3.83055981343515    3.07763736349978
C        11.77947079184575    4.69938764745863    2.15740956659051
C         5.91789065171107    3.29889276473585    5.07227018136776
C         4.68848903962142    2.64302921072739    4.88717063463495
C         3.51457357397370    3.32920761515707    4.82437912769159
C         3.50307022735412    4.77029097019010    4.93137627115323
C         4.76561355782656    5.42076081919119    5.11016169523449
C         5.91912857051213    4.70217317251712    5.18507943780646
C         2.27310344520287    5.29982445483156    4.85286285633638
C         8.92060689315317    2.65902411431314   11.00504851211800
C         8.67934269801686    2.90620554705378   12.37290145741990
C         9.66528396804234    3.38485453000646   13.17801440926178
C        10.96787220841570    3.61610205764954   12.66347579796407
C        11.24456351522952    3.29567333886339   11.25999972692164
C        10.22529453702176    2.83535684067300   10.49408640756487
C        12.16254727440536    4.09091911877414   12.98692148305837
C         6.10488698127846    2.39123022066849   10.57746712716946
C         5.88938326484575    3.72812256897026   10.95572118704485
C         4.65136932314917    4.17779002009966   11.29854382295595
C         3.51246470816840    3.29986927878169   11.26858695439758
C         3.75065613571528    1.93771416493154   10.86759870319061
C         5.00381605213877    1.51734566191661   10.54315125134649
C         2.27484191112909    3.71222737288512   11.58867246218557
C         7.98019508118249    0.23960360232873   10.69756947509816
C         8.97369390353682   -0.58811585014665   10.12824886450493
C         9.34961550837794   -1.75978683148461   10.69517143144139
C         8.69955058973580   -2.17566179748827   11.94035557360008
C         7.74579148503510   -1.30355450523478   12.53232243370486
C         7.41105137888385   -0.12883419464845   11.93501336399031
C         9.25248375115718   -3.37001926467976   12.10901738156195
H         7.61391116496650   -0.66335463653543    7.27100864772717
H         5.91169615624745    4.42911279331797    8.18663629373212
H         3.25952506243222    0.13586846034224    6.48863685946410
H         2.04093289660096   -1.69327103888346    5.39153764416627
H         3.19159437325362   -3.81865598271199    4.88454163170984
H         5.56066378624867   -4.11089390208604    5.50746840017596
H         6.77638941967462   -2.31819417510577    6.61621311521369
H         4.27558712846669    5.98498738776382    8.36089199139602
H         1.91540150043520    6.66786766699970    8.44834736169786
H         0.13123676697340    4.98088483954890    8.20262287532099
H         3.07141212542760    1.91968575820897    7.82366038546326
H         0.72283362297063    2.60649228840907    7.90267916050305
H         6.00567671215912    1.66446869835804    2.85419148523924
H         5.95470636337828   -0.44985603423989    1.59786378846806
H         9.00050205688611   -2.06787540175556    4.21287322067438
H         9.01956846476344    0.05132568053518    5.45099168390395
H        10.31277973306339    2.74247287798748    5.58532883450512
H        12.03373744740856    3.64838639874040    4.09642618355665
H         8.92505746806927    4.80562309796328    1.29385641031644
H         7.22145348618152    3.86844315506638    2.81651194486706
H         4.66315250235941    1.56359783434402    4.80736141666458
H         2.57303316010516    2.82085706812340    4.68981893282707
H         4.76511622076088    6.49593258339015    5.19348333293616
H         6.86489880512814    5.20710858055501    5.34192954768175
H         7.68918315621519    2.74070067899309   12.77416796603824
H         9.48969311978220    3.61091643383107   14.21839261887520
H        12.23690567337899    3.44576524977911   10.86068580024225
H        10.41801464514816    2.59818396974903    9.45354090869046
H         6.72996890864278    4.41063695522921   10.96121194381294
H         4.48540428131737    5.20254684873281   11.58971992344351
H         2.90647866881260    1.26727405100802   10.83706456761094
H         5.15924410741512    0.48740138429250   10.24101676091837
H         9.45873053322394   -0.27120257320476    9.21037126963806
H        10.10103857561222   -2.39461407910738   10.25021208316587
H         7.29408152960023   -1.61438348328009   13.46180120893979
H         6.67609185977025    0.51742013898086   12.39472110854692

