43
CSD_code = FOCMEP | q = 0 | S = 0 | Stoichiometry = C16H21IMoNO2P | MND = 9
C         2.13699385404928    8.24055929136909    9.37659191828712
C         2.52559905443673    8.96900730404078   10.60265941635688
C         1.60778895586055    9.15930413570620   11.63367821650571
C         1.98802883689782    9.80091861259910   12.79615986163508
C         3.28367305656483   10.27776635998829   12.96013417100380
C         4.19578802582765   10.08997639205095   11.92628795261819
C         3.82575743354082    9.44463071438159   10.76322913570487
C         3.69022187804174   10.95988963244334   14.23007586145207
C         3.59773482143450    6.01548296822889   10.93562690616977
C         3.97575246055676    4.98658747756716   10.04618435640571
C         2.87754355355662    4.11008512310245    9.90439529838972
C         1.84502920108884    4.56916763202316   10.78021225873377
C         2.28595207397500    5.73191154416351   11.40584399168630
C         1.30469474332402    8.63851607056196    6.49585624536532
C         3.95929505503720    9.71998058988077    7.13067201727401
C         1.55675674745418   10.86739126097531    8.26947903025360
N         3.02172899014021    6.47214103456574    7.57356800648344
O         0.90607047819788    7.80017680534274    9.23249604873880
O         3.69884411841512    6.69043923812844    6.59773929850401
I         0.03292199295685    4.99626237206674    7.79517818458830
Mo        2.20938210866179    6.15709734192338    9.06735807184593
P         2.33703005971268    9.27633583146413    7.83872386561993
H         0.59448111252474    8.80318762715187   11.50154950413373
H         1.26606850061994    9.94144106537341   13.58803589050645
H         5.20814567962838   10.45215743945616   12.03790862918596
H         4.54741063710825    9.28106538476024    9.97222327266123
H         3.95262947076891   10.21790293978760   14.98517867089085
H         4.55545499325972   11.59861882172705   14.06966260403539
H         2.87403463178811   11.56163596733987   14.62401811233661
H         4.25917838668510    6.76516572830529   11.34891568216540
H         4.96520402531789    4.83805917757787    9.63025489810906
H         2.89665535167367    3.14159094307084    9.41450387740824
H         0.92670414794920    4.03572383535302   10.99168862964156
H         1.77411314959876    6.27245548208520   12.19181014779151
H         1.86738628608598    7.92723999973827    5.89001029980223
H         0.99688339221274    9.48379434170535    5.87937185950491
H         0.42730699849145    8.14839774669067    6.92797660510513
H         4.48831886593563    8.80645582926495    6.86260443907043
H         3.79084428150253   10.31337643152462    6.23340892090689
H         4.53860825133252   10.29863666052752    7.84630040244237
H         2.12971071627905   11.36276693784010    9.05167873816966
H         0.55369733516731   10.65675004245024    8.64022292206315
H         1.49907628635191   11.50874986567844    7.39222578043373

