71
CSD_code = FOCNIV | q = 0 | S = 0 | Stoichiometry = C29H37FeO2PSi | MND = 8
Fe        0.08318612752549    4.58508393601569   17.70488148959171
Si        0.13826092374154    2.39203146736699   18.07601906440648
P        -0.68830313649231    4.39501267500976   15.69644486094952
C        -1.47557941811226    4.41075985695171   18.42801242384803
O        -2.43736838599636    4.38866833148575   19.07030535682613
C         1.56799562850094    1.42044440899852   17.23352076398815
H         2.16468020877088    0.91406916960496   17.98217436759210
H         2.22692520338377    2.06842061909347   16.66825515779823
H         1.17489149675092    0.66643974642503   16.56122459234241
C         0.14973772084610    1.89819895209239   19.93532642232560
H        -0.54358032627231    2.50008274963269   20.51186134329186
H         1.13143846859041    1.99872605070622   20.37896921102805
H        -0.14834342909345    0.85955782210815   20.03614980855555
O        -1.14988999928021    1.49093463331994   17.51934442754270
C        -2.41123764036208    1.90283149994801   17.28161732373045
C        -3.41878134222315    1.50069721444528   18.31249575144618
H        -4.42154394478199    1.77441247201463   18.00029932588645
H        -3.18732233312182    1.99377087304912   19.25466103891910
H        -3.36568262566431    0.42583749049285   18.47581708493468
C        -2.69060275369056    2.58190153260204   16.17026420305954
H        -3.69422214069608    2.91768321968169   15.96810281988172
C        -1.62027410147328    2.87697305497616   15.17225012006643
H        -2.03435688407550    3.02477370692195   14.17218661927471
H        -0.90842443468473    2.04873921769208   15.15442265010132
C         0.45202985581398    4.51443804390507   14.26856673675164
C         1.30353270409237    3.43602718767209   14.04075094792537
H         1.23362411674534    2.56855910789776   14.67979840176318
C         2.23383073728395    3.47415874638408   13.01966593087230
H         2.88449277010061    2.62849871083030   12.84978442681328
C         2.33743990661919    4.59974688505964   12.21770514101718
H         3.06576948457673    4.63389559665086   11.42094177226640
C         1.50675616636803    5.68361683177751   12.44642625161928
H         1.58810452814617    6.56665203578657   11.82849558953072
C         0.57197119468903    5.64518172604575   13.46684230339856
H        -0.07042603283722    6.49755520356960   13.63486961464492
C        -1.97154851035598    5.62864856110728   15.25252353931153
C        -2.51219779977737    5.71999230303107   13.97214496012650
H        -2.14502791592463    5.07934400862729   13.18158500947220
C        -3.51278571604274    6.63479247841191   13.70098672782961
H        -3.92523889739703    6.69995733811426   12.70423868836372
C        -3.98954098387396    7.46559107396673   14.70276431584000
H        -4.77250392783588    8.17769730684660   14.48669448118448
C        -3.46129741585222    7.37744215458386   15.97947599429235
H        -3.83291928999396    8.01960207864538   16.76491953442342
C        -2.45802588574275    6.46355780439145   16.24941832274081
H        -2.03880805419489    6.37370696614912   17.24041772548491
C         0.47721942159299    6.48085344106237   18.61908990944321
C         1.02255060800041    5.41844589527875   19.40597412646739
C         2.04645880809491    4.78086138271585   18.64087761240919
C         2.05292896929421    5.37387789918876   17.35449808526095
C         1.10067010035109    6.45204018210387   17.35127221913745
C        -0.45594557700079    7.52924299427284   19.13757561381746
H         0.06953530524769    8.17355901604932   19.84504065359099
H        -1.29785225293080    7.07962753862768   19.66060606125420
H        -0.83653801637011    8.14881333095268   18.32986608929274
C         0.75065042839317    5.24625296981050   20.86585192854036
H         1.24979475033611    6.03361335370175   21.43425977878937
H         1.10688832211967    4.28575868745769   21.22330792267742
H        -0.31661131981008    5.31286946630522   21.06519550479046
C         3.10091276991513    3.85790606063874   19.15613947230993
H         2.79836703778816    3.39097247875772   20.08757519855406
H         4.01442312918757    4.42726541163594   19.34224713106531
H         3.33129086831685    3.07699958276357   18.43920881059009
C         3.11247849269751    5.13356600850658   16.32621370863271
H         4.02734493741885    5.66097150535066   16.60481177866868
H         2.80608213703305    5.48131596430501   15.34364310742552
H         3.34676686088496    4.07419777700955   16.25185764792339
C         0.97429813562268    7.51315378361162   16.30457660124660
H        -0.06925289042057    7.72278243509888   16.07296209920203
H         1.47902871594988    7.21821742217863   15.38900322149800
H         1.43307634159006    8.43672256252776   16.66312307435146

