71
CSD_code = FOCNAN | q = 0 | S = 0 | Stoichiometry = C29H37FeO2PSi | MND = 8
Fe       -1.15885350491690    3.28778672064705   16.04130199329935
Si        0.18286883415867    3.65694791841445   17.77204114949311
P         0.53478193677071    2.27220313934619   15.25684965532783
C        -0.63388834403178    4.80198704765677   15.39649010383616
O        -0.50922368548234    5.85301049277933   14.93442659549856
C         0.14862790446327    2.61566671708423   19.39168640828556
H        -0.24521139521766    1.61479067768146   19.26139439376401
H        -0.45585168048021    3.11799934330901   20.13460041068312
H         1.15454205271755    2.52865289301744   19.78887363237490
C         0.07752001690750    5.45701247087741   18.43151545306816
H         0.91237801420440    5.68083193606469   19.08617583036107
H        -0.82844960079767    5.57118559361166   19.01389376106526
H         0.05514408701212    6.19560472646020   17.64031745725073
O         1.76107271593574    3.34817684396770   17.31262263130746
C         2.07034567639997    3.12603619350235   15.97978684858310
C         3.36962303229937    2.31844832866759   15.87463867601870
H         4.14030608394217    2.84024538748878   16.43931242418134
H         3.68668096008118    2.24674984168818   14.83722159926221
H         3.25102047320241    1.32076491660377   16.29018850707518
C         2.25914999770938    4.40860584503353   15.21323596868177
H         2.29189898940632    4.29251417723562   14.13684503673215
C         2.45232814381900    5.58362935332464   15.78084734149013
H         2.43960328430340    5.68717326204344   16.85134919549603
H         2.61203427243416    6.47644695514433   15.20123230359549
C         0.76638228950734    0.51049411980855   15.66184148939460
C         1.11627764812873    0.16423756724288   16.96590870335171
H         1.34320021997242    0.94619710644304   17.67296306962181
C         1.17339932116904   -1.16343209921683   17.34626284005932
H         1.45584919964046   -1.42237839060734   18.35643697944920
C         0.86052382805026   -2.16233320986765   16.43766225608157
H         0.89915352437317   -3.19961972955925   16.73613864476777
C         0.49006556202470   -1.82594693863289   15.14617021116014
H         0.23598947441344   -2.60112138854962   14.43715300151550
C         0.43830265518160   -0.49838400815751   14.75906764306863
H         0.14569288136511   -0.24432618086690   13.74985978440531
C         0.84085704572145    2.28360023885342   13.45724262381054
C         1.83022559826952    1.53239277167803   12.82705018892297
H         2.46085030041144    0.87391965452609   13.40794616925728
C         1.99724780729635    1.62037931136281   11.45678700310900
H         2.76763880643797    1.03833087129876   10.97166487653991
C         1.17983251948650    2.44911179880175   10.70414240626008
H         1.31420510344184    2.51110965930674    9.63426039518869
C         0.19056746274064    3.19491154760715   11.32434368305506
H        -0.44816819136201    3.84032725798852   10.73901680044805
C         0.02380071221390    3.11125544731248   12.69456946266837
H        -0.73520090884237    3.68717191148410   13.20596459726178
C        -2.69705257713720    2.05886158071729   15.22203060122902
C        -3.05128095727314    3.42317250605859   15.08759826359889
C        -3.09561763594018    3.99508349230580   16.39949564308406
C        -2.83331471618781    2.96271134169706   17.34565174598051
C        -2.52917995605252    1.77803159285593   16.61947687687210
C        -2.68816770740019    1.05206282037731   14.11591434457827
H        -3.71264041288097    0.81441105934519   13.82318598816549
H        -2.20457789204444    0.13261939968007   14.43396956044777
H        -2.16448174561733    1.43088675396248   13.23918761849918
C        -3.46705130544693    4.12031369424894   13.83068816778577
H        -3.18276178637922    3.54476496803021   12.95337390962783
H        -3.01133625522286    5.10629635748451   13.76264443527406
H        -4.55066573465170    4.25044024131294   13.81810328646875
C        -3.55950239819335    5.37686508604022   16.72943619045526
H        -4.64203210717811    5.39277405797086   16.86909819140052
H        -3.30806876429256    6.06807044886422   15.92942853240265
H        -3.08905531536068    5.72661833082816   17.64438385474325
C        -3.08175422979056    3.07538772518394   18.81312601947601
H        -2.68029255503402    4.00395879784976   19.20837163147850
H        -2.63442443542245    2.24839199087927   19.35283884990428
H        -4.15798263421198    3.06398607347563   18.99790850604656
C        -2.37203224090965    0.41531178565887   17.21636379805571
H        -1.84675910216907    0.46792419614032   18.16630607366994
H        -1.80841393835989   -0.24210346286467   16.55919840332090
H        -3.35089472132441   -0.03530893800732   17.39211930130734

