34
CSD_code = FOCPOC | q = 0 | S = 0 | Stoichiometry = C14H12N2O5W | MND = 6
W        -1.28757600666746    2.62602392501213   10.91118094167410
O        -1.37129446805161    0.18063644990342    8.94738514017778
O        -2.33231466910433    0.67898115167825   13.11533781173584
O        -1.22096305592759    4.94882339112012   13.02273329831377
O         1.54548064649599    1.73606653857104   11.91286884330793
O        -4.27491608919739    3.27295431166390   10.20133720631036
N        -0.62440683797927    4.15528066605688    9.33395002950779
N         0.81859559678431    5.52836881553423    8.11819176099384
C        -1.32723649757628    1.10524530847903    9.61893284873010
C        -1.94637325055964    1.39059008725332   12.30338599479106
C        -1.24065580560523    4.12363929216218   12.23101523874680
C         0.55819625044033    2.11521145441767   11.47767922197583
C        -3.17078813569306    3.07087600041093   10.41989068280724
C         0.52800387751687    4.41237169917311    8.82652473564150
C         1.62007196719888    3.43410979641803    9.05585610447079
C         1.51630842975380    2.14877202030839    8.53332347760133
C         2.51572554418371    1.22253766016645    8.77225745372429
C         3.61673091597248    1.57078198656133    9.53690162096117
C         3.72537691954745    2.85103531932593   10.05452405658654
C         2.73394760245446    3.78448779902122    9.81252062679181
C         2.00921921338763    5.66632974909048    7.31309726147357
C        -0.14911461606147    6.59577465864930    7.98172671879836
H        -1.33809662409303    4.84711488297308    9.10863195251619
H         0.66100078128387    1.88913484068310    7.92690898822574
H         2.42968783991216    0.22542386263391    8.36777110449001
H         4.38927446088050    0.84301689727160    9.73351538750808
H         4.58101543337064    3.12110374156032   10.65474999748127
H         2.80930621740714    4.77998456193552   10.22567887188396
H         2.59931491816981    4.75466171232542    7.35035412160969
H         2.62085015874952    6.49823069102785    7.67269904861794
H         1.73249810898586    5.86174862329234    6.27364174808456
H         0.37139432030404    7.49806609743117    7.66678614108808
H        -0.62953106465802    6.80031918189183    8.94015564715880
H        -0.91713208166282    6.36039682598722    7.23728591624555

