59
CSD_code = FOCRUM | q = 0 | S = 0 | Stoichiometry = C22H28Br2N4NiO2 | MND = 6
Br        6.73169971391857    6.21574582271643   -0.00343284888240
Ni       12.18336502497416    6.26558681137726    4.89293766447623
C         8.54617555196669    7.87626828134695    1.46802096235321
N        11.81651797295829    4.71096374899586    3.76261192639767
O        11.38500722680449    7.37913894387131    3.60158804471864
N        14.31600816248067    6.15430087886767    3.60766393382862
C        10.40906651489985    7.08879542103094    2.83814513838289
C        14.90712408956105    4.82122459714414    3.53535427445756
C         8.22786739959018    6.55798283860703    1.13508194083686
C        10.06705010661451    5.75263653863299    2.45718553193436
C        10.89457175509377    4.66715962715991    2.87175130980915
C        15.31441596134158    7.15221524822706    3.96607881583730
C         9.61156519464691    8.13181893740881    2.28646141678353
C         8.98096134745709    5.51357595454685    1.60646356058121
C        13.94154397994205    3.77615419099659    2.98118677462154
C        12.69164493621977    3.56331197685872    3.84967012588766
H         7.94801320300274    8.68609677972834    1.07736226136075
H        15.21415278549471    4.53676927617210    4.54635737492022
H        15.81194057042697    4.82793057765527    2.90010857039275
H        10.73374100927186    3.73015460865444    2.32647128846622
H        14.85201817689696    8.13714992306903    3.96694304024800
H        15.69220470639357    6.94149922736446    4.96660291757018
H        16.16806895169704    7.15811450313439    3.27118298203732
H         9.86767336316274    9.14887951267670    2.54454565400884
H         8.73607363599283    4.49711096522336    1.33264408219740
H        14.47358030135135    2.82558102490684    2.90717169594430
H        13.62737612319527    4.06713549156867    1.97415263133299
H        12.17018915520825    2.66116428471105    3.49897375907131
H        12.99152793947873    3.42660902564140    4.88912070568638
H        13.95275332223281    6.39331239264985    2.68320974801193
Br       17.63500166602709    6.31515359379653    9.78934728939088
C        15.82045963207088    4.65473354347157    8.31786207393749
N        12.55028785597765    7.82020323611690    6.02325537594239
O        12.98165541316336    5.15202498259082    6.18430503484932
N        10.05072025452589    6.37702549644129    6.17819820555884
C        13.95761010201588    5.44231077295734    6.94774662877344
C         9.45968242193325    7.71014139728580    6.25049922227995
C        16.13882731415018    5.97300066570680    8.65081369154957
C        14.29969363361583    6.77844995386820    7.32870302989334
C        13.47223341970775    7.86396751575626    6.91412118368470
C         9.05225109487090    5.37917353277136    5.81977261480921
C        14.75506035484507    4.39924220821846    7.49941712750204
C        15.38578839446241    7.01744925668983    8.17943417033488
C        10.42531799732293    8.75516314159151    6.80466498616151
C        11.67523545098107    8.96791006182405    5.93617840686428
H        16.41858099866822    3.84487387201789    8.70852001911110
H         9.15267367421132    7.99460839763683    5.23949155382788
H         8.55486092704385    7.70348960560575    6.88573815293796
H        13.63310516951245    8.80096760241350    7.45939752143996
H         9.51459167844561    4.39421065908429    5.81891147992832
H         8.67448393366038    5.58991280666779    4.81924233897551
H         8.19858833124705    5.37331968256989    6.51465929011099
H        14.49890507624963    3.38219490551754    7.24132400625599
H        15.63072251491959    8.03390062011748    8.45326087576256
H         9.89333613293230    9.70576754733280    6.87866842447965
H        10.73947002688722    8.46417642921495    7.81170347699487
H        12.19674261135887    9.87003231891416    6.28686587912289
H        11.37536436987125    9.10461256273286    4.89672642117944
H        10.41395136704726    6.13799622014297    7.10265623506861

