111
CSD_code = FOCRAT | q = 1 | S = 0 | Stoichiometry = C54H52P4Rh(1+) | MND = 4
Rh        7.46607458971690    1.93721181295927   15.86051553372812
P         7.15743283206211    2.63131509717432   18.02575539671329
P         9.75106073775204    2.09473631777274   15.97785161645441
P         5.18079884677100    1.85008198036329   15.71081972192452
P         7.76126420684314    1.22245751394322   13.70434232220032
C         8.40236906075795    3.47824283964944   19.07156769924617
C        10.74455328926518    2.12042563516897   17.51655087783682
C         8.72560377261774    4.80474377503232   18.79951845560646
H         8.29583677404619    5.30393873077778   17.94329925482050
C        10.83436036559288    0.95423679953995   18.27124366106223
H        10.26716768989030    0.08003777790612   17.98462665720283
C         9.58808674958848    5.50172810985448   19.62407447864026
H         9.82549842811665    6.53185909652691   19.40399123415592
C        11.65378135320907    0.89753076484662   19.38222214224697
H        11.71886944419857   -0.01475413184048   19.95621353556040
C        10.13734248162943    4.88328779499573   20.73442480433581
H        10.80161679657651    5.42971183520684   21.38608438101735
C        12.39683537274020    2.00623649227603   19.75135297921337
H        13.04635106129108    1.96076643006688   20.61193931080870
C         9.82900162511785    3.56157504330513   21.00587753926778
H        10.25393033343907    3.07278006098899   21.86948418163556
C        12.30490104247727    3.17242201072505   19.01144857519522
H        12.88132168228538    4.04001772097223   19.29489546685416
C         8.96967019002775    2.85994090207356   20.18001445356686
H         8.73831814050633    1.82947234937434   20.40477137251809
C        11.48266925704377    3.23344208095333   17.90081047356185
H        11.42018336596014    4.14923404440084   17.33196044181247
C         6.79174903788414    1.16720819788887   19.04534017471993
C        10.23420897451644    3.67284808504545   15.20663280175289
C         7.42963692162034   -0.00926219333707   18.66257739580043
H         8.05799631337590    0.01037449865115   17.77517059937166
C         9.32724979452711    4.71942482133223   15.34583846973693
H         8.39242980686344    4.52555718033797   15.86691409529640
C         7.26909464034838   -1.17143357070232   19.39145321834151
H         7.78122670822508   -2.07519193403422   19.09595053910131
C         9.60630841830048    5.97211915373394   14.83525304151587
H         8.90264408361895    6.78159740812649   14.96215791835788
C         6.44307875284248   -1.17434755963159   20.50319780721673
H         6.30429457094558   -2.08067557400697   21.07238787380238
C        10.79303852213196    6.18589624534773   14.15404697161854
H        11.01431282677655    7.15910520000462   13.74347875142285
C         5.79852145747541   -0.01028728471315   20.88777980595975
H         5.15815473371461   -0.01142701568523   21.75703336684147
C        11.69892936584712    5.14896447367560   14.00377823073053
H        12.62581154738680    5.31600255743916   13.47588233918089
C         5.97869075696009    1.16107228364279   20.17327252744555
H         5.49110888272703    2.06434239238621   20.50765006929671
C        11.43091550534000    3.89974237703109   14.53537323531937
H        12.16293494880215    3.11327739563519   14.43030372318092
C         5.77404260655148    3.79967976937758   18.40436657904622
H         5.81587459433035    4.01993457890897   19.47585235394207
H         5.98742871015603    4.73459024590607   17.87493404590772
C        10.80285060936152    0.83985904198565   15.11721901780430
H        11.84801259336031    1.10338954216841   15.30842863134078
H        10.61986972293453   -0.12293778343781   15.60655911069412
C         4.39018772654917    3.29762508100331   18.01617301478041
H         3.64308027980377    3.98843749240428   18.41917173036027
H         4.21216520660610    2.31653231937449   18.46444448250597
C        10.54783159662228    0.71163187365876   13.62205713709754
H        11.32193093824189    0.07088344534482   13.18868240725890
H        10.62350367036808    1.69333184752393   13.14626009650046
C         4.21111052718397    3.21028353326368   16.50659441321101
H         4.52119022042274    4.15106408781780   16.03910847438319
H         3.15739446433462    3.05600494920673   16.25429538647368
C         9.18446823466607    0.10270602220545   13.32553977429467
H         9.04667050140577   -0.81121312606527   13.91338154903748
H         9.11093798140814   -0.17847544552069   12.27038563940964
C         4.22883210948354    1.82260661168586   14.14666083178502
C         6.52842057379556    0.28183095615638   12.73274447259800
C         3.45640720641732    0.72896965412991   13.77332617747029
H         3.45913508968396   -0.16848968463251   14.37377866963235
C         5.97415730477493    0.77384249822595   11.55746283273637
H         6.20430176562011    1.77536827840078   11.22565106875320
C         2.67860644980509    0.78451225611896   12.63094276258495
H         2.07495388972892   -0.06731369472282   12.35649432448806
C         5.12369830677118   -0.01824640855853   10.80719469511662
H         4.70524910967885    0.36983162617480    9.89087225534565
C         2.66726304629178    1.92500803533756   11.84651890504950
H         2.05419258371213    1.96619897399066   10.95935245753834
C         4.81426997287292   -1.30214251398440   11.22215339154283
H         4.15508215082580   -1.91820624905408   10.63005518551226
C         3.44417693250740    3.01362094146349   12.20552891592397
H         3.44172485370303    3.90607984534238   11.59759516979729
C         5.35456074595681   -1.79434941375427   12.39853758995956
H         5.11596489389102   -2.79446992254061   12.72849611723307
C         4.21740666912047    2.96381862068445   13.34970371004813
H         4.80977602479960    3.82337072016627   13.62776276972341
C         6.20880737773349   -1.00783180844058   13.14723904642238
H         6.63768999673474   -1.40210358392750   14.05759329738858
C         4.55906251383873    0.35101456328134   16.53555390308189
C         8.06935438584724    2.66443547512324   12.63642864665044
C         3.28822303062603    0.22477615132936   17.08819620621723
H         2.58871380639176    1.04671961925152   17.05345594512299
C         8.76195161731835    2.61820857846297   11.43017671506006
H         9.16065603499668    1.68532981467905   11.06010798124522
C         2.90711635023423   -0.96762484995229   17.67650161525978
H         1.92298669278072   -1.05782419045477   18.11132148686790
C         8.93330527202658    3.77253587377511   10.68763019089376
H         9.47734416378722    3.73216794844647    9.75590418211817
C         3.77559290733739   -2.04708983277738   17.70146008057679
H         3.46777775556052   -2.97566314973483   18.15717145324943
C         8.40429444334973    4.97528019946995   11.12775054643451
H         8.53813255076423    5.87014143556080   10.53955071359757
C         5.03452769055581   -1.93436529693684   17.13645960085702
H         5.70864808621272   -2.77775664581440   17.14597523588533
C         7.70111570221125    5.02577764622907   12.31931358407614
H         7.28133175263711    5.96061496513657   12.65964957933380
C         5.42372115289963   -0.73751774338289   16.56628868222498
H         6.41316921345000   -0.62154141513773   16.13150646001284
C         7.54460973880813    3.87679787508765   13.07057600528677
H         7.00980184037991    3.89696374177686   14.01727317204522

