60
CSD_code = FOCSEW | q = 0 | S = 0 | Stoichiometry = C25H30Cl2NPRu | MND = 9
Ru        0.23184905664177   12.74969876330311    2.71409277985800
P         0.60777151371065   12.88013408307101    4.95304230062843
Cl        2.29743676143174   13.86018968990387    2.47346252883615
Cl       -0.75493705519511   14.84087348305348    3.17445735129980
N         1.17250348676928   14.34157007502436    5.50658555514571
H         1.60662922401520   14.89689763834873    4.77215778433876
C         1.81095442564505   14.47470226297166    6.80301883332651
H         1.29067874434709   13.81190975052337    7.50378417183137
H         1.65200767827243   15.50409750328590    7.15176321283092
C         3.28444252454452   14.18088787096046    6.84325894187234
H         3.69821426982563   14.18379056327096    7.84381620864994
C         4.05004871689594   13.95396944264961    5.79386235836074
H         3.67011275723817   13.95174836232134    4.78485262971526
H         5.10275203228238   13.75714950707034    5.90201370417058
C        -0.90647252425979   12.63068224990680    5.92393925756192
C        -1.63007840046066   13.73171170923037    6.36696326952913
H        -1.24363488654463   14.72132560704260    6.17291410185539
C        -2.83393373386326   13.54761308254848    7.02342908806251
H        -3.39527089006507   14.40336291797167    7.36800295075215
C        -3.32471875954854   12.26900784789259    7.23191965233825
H        -4.26544220880082   12.12659029946356    7.74322932280095
C        -2.61296388781084   11.16908827089566    6.77833301647018
H        -2.99928164161725   10.17197454575181    6.93704205745379
C        -1.41052923996590   11.34825933122296    6.12036554287248
H        -0.84699978502331   10.49523790812171    5.76352982141280
C         1.73205776356046   11.58877614787992    5.60472452609953
C         1.64432769493102   11.08071888046464    6.89494650629095
H         0.84342299017876   11.39454917663689    7.55025729451709
C         2.58076937892685   10.16451768875426    7.34099602189701
H         2.50967857617947    9.77212745820272    8.34517566090470
C         3.60706434983775    9.75254284509265    6.50743602355887
H         4.33467191203590    9.03700685989039    6.86148238669080
C         3.70215503096517   10.26273715666656    5.22261837926326
H         4.50739984024004    9.94939069189616    4.57423450071355
C         2.76954922686041   11.17907118969670    4.77469196644611
H         2.84197648280949   11.60643067417522    3.78294964292094
C        -1.72094633854387   11.97044185139245    1.80817688723077
C        -0.91341962264251   12.47699475443288    0.74775084636073
H        -1.33692542816531   13.20541833661966    0.06415947341003
C         0.38565041666966   12.01363850568276    0.55196981791242
H         0.97479750287215   12.37976371428709   -0.28319270591547
C         0.94799619656358   11.02290928411686    1.40954779722597
C         0.14814691986980   10.50758648780377    2.44427804514129
H         0.52431602067493    9.69567552380901    3.05924937940842
C        -1.18231498921802   10.97060291548096    2.63396954139919
H        -1.80321135064794   10.50185402255462    3.38768366269373
C        -3.16195882649812   12.40679775885776    1.91844094960747
H        -3.27114709221674   13.34819727344073    1.36861208651516
C        -3.59545307231168   12.66126089821094    3.36110363220865
H        -2.91556052804588   13.36908504333437    3.83121698067284
H        -3.60867218452534   11.74487043919384    3.94696636278162
H        -4.59612339960823   13.08578812703836    3.37346887033529
C        -4.04834617393442   11.34702431913324    1.25354625779482
H        -3.75479605954531   11.19057703556651    0.21692817036836
H        -5.08696629096891   11.66735532830447    1.27346759775961
H        -3.96965832956803   10.39819490769814    1.78130813888140
C         2.32987421065833   10.50788251201693    1.13961888746183
H         2.37538259226613   10.06196203819131    0.14534108637850
H         2.62021473255217    9.76109743674630    1.87553641957949
H         3.04630966989064   11.33037995127108    1.17140246345037

