69
CSD_code = FOCTEZ | q = 0 | S = 0 | Stoichiometry = C30H34ClFeN3 | MND = 4
Fe        2.81783317367938    9.84281652701924    2.57221533331340
Cl        1.78483306987837    9.31088767275139    4.18774156236054
N         3.98315966470347    9.33622290992082    1.08236166297694
N         4.83119938131677    9.36659923522947    3.79060791635372
N         3.03972207496670   11.51007549942282    1.54493261476644
C         2.20764341654190   12.57942353235322    1.91289520044873
C         4.59328761063427    8.19063159361385    0.73881791168672
C         4.35185736585835    6.94741712095584    1.47522303689551
C         3.82834128377705   11.55083616994443    0.50507482149820
H         3.96342138752505   12.44649991005483   -0.09340884698359
C         2.67981561468481   13.59038952936027    2.76444840731094
C         4.42657899421548   10.31432688976677    0.22786663136338
C         3.03463687093617    6.51239467795119    1.68381451311020
C         0.88699013925615   12.59859071294939    1.43746163771168
C         4.93126593417827    8.27970901204806    4.54703975440136
H         4.00337788406754    7.77956352807093    4.78540418068732
C         0.37040730977017   11.47743783569947    0.56549087203453
H         1.21958266566818   10.85270232010419    0.26252213418777
C         1.81630242654379   14.61259212610485    3.12476397528231
H         2.15652635129514   15.39591402789974    3.78326938341476
C         5.32888774787794    9.76435400754057   -0.69356119880252
H         5.82721443615704   10.28387213918053   -1.48938542128083
C         6.13883135024484    7.79620492367876    5.02311881070381
H         6.16149795217135    6.90821363749256    5.63460816088374
C         0.51613101433145   14.64297875946867    2.65410626959426
H        -0.14293931102402   15.44754213163311    2.94512838224098
C         5.43537080779510    8.42410002937457   -0.36386628229450
H         6.02075787661585    7.68174917355262   -0.87206271987514
C         5.41927925502540    6.21091307372386    2.00329700111814
C         0.05625838979021   13.63994416758283    1.82246466677695
H        -0.96420693384781   13.66763831094719    1.47246600750093
C         5.95143677699167   10.00481757635303    3.46936065923082
H         5.83147520544532   10.87429573205765    2.83946907661798
C         3.85670200615420    4.66578868195760    2.99319928522410
H         3.66533425962684    3.78612519766077    3.59033609802482
C         4.73328508292388   14.85463228006431    3.56964130883425
H         4.27315478417215   15.36736442072766    4.41043436409130
H         4.65305349352001   15.48699597232809    2.68809268490879
H         5.78771909761764   14.71759054861465    3.80049424085491
C         5.15498898441773    5.07841034331625    2.76023610506581
H         5.98042715766864    4.51545116264840    3.17352893349286
C         4.07974367706165   13.49585645254940    3.32281451953354
H         4.69714519806038   12.95175616162514    2.60008749050140
C         7.30189537207471    8.47218568609181    4.69528897062859
H         8.26254148915228    8.12796402375798    5.04997077310642
C         1.87352139147469    7.22828997374816    1.05475308570460
H         1.56785474672371    8.09282470377732    1.66110635444512
H         1.01740203340483    6.56213906516440    0.97452521219618
H         2.13893766016801    7.59231057732302    0.06443409356106
C         2.80473617954065    5.37604130577979    2.44465597800319
H         1.78955853376269    5.04219385568597    2.60617887424081
C         4.02554267492584   12.67688271560955    4.61670975285337
H         3.60735761499140   11.68852419602151    4.41778111535912
H         3.39820249047624   13.17720430780206    5.35129969058453
H         5.02258070200848   12.55334284991033    5.03422559133412
C         6.84455968375646    6.61512547819934    1.76724008876865
H         7.21200672187535    6.16484545885654    0.84488112585447
H         7.47875910256729    6.27207181493310    2.58243330773030
H         6.93552593744174    7.69452974413064    1.67285523190498
C         7.20435946632574    9.60088924980528    3.89617061184236
H         8.08284009200287   10.15693502987007    3.60783574571051
C        -0.58512415018089   10.59899465254568    1.37811404816970
H        -1.44837194765151   11.17172395698029    1.70911322957379
H        -0.07425708199291   10.20795719905449    2.25843951394364
H        -0.93286183186943    9.76260338996031    0.77604867365192
C        -0.30785884104114   12.00088195904283   -0.70092537494680
H         0.35860402149636   12.66912739997335   -1.24204587398843
H        -1.22075611710027   12.54180061639402   -0.46527515670948
H        -0.56618687256518   11.16958507398797   -1.35316580934552

