57
CSD_code = FOCWAV | q = 0 | S = 0 | Stoichiometry = C29H23MoO3P | MND = 9
Mo        1.95169073390827   -1.09834845396749    3.09126552497050
P         1.49213582111169   -3.12879901119933    1.96985990432593
O         1.23055939504099   -2.68167776887825    5.61639648742657
O        -0.85093102979898   -0.63482168187642    1.83793805463649
O         0.55351284532003    1.53637997263596    3.47749757471657
C         1.43746490310524   -2.11474068906091    4.63476646547912
C         0.14277892539451   -0.72127952028686    2.46775191794860
C         4.18290930339137   -0.72267708442347    3.78981245392016
C         4.17334278542256   -1.34874669919879    2.52885547789278
C         3.57714840899757   -0.44537990114536    1.59467451272284
C         3.16823311123450    0.68867262069757    2.29862924050782
C         3.51923753377714    0.50882775452129    3.67090028252378
C        -0.17416334455067    2.29246823434340    4.30345417053091
C        -0.87358812914852    1.51596978974281    5.18245431504083
C        -0.54345626865888    0.18737813704334    4.86386261032836
C         0.36104727423011    0.22868655874750    3.81145514882590
C         2.07602759489382   -3.05960602288879    0.25435072198238
C         1.44079548374163   -2.13933893723859   -0.57928572725697
C         1.89749116352349   -1.94002779545682   -1.86721362793675
C         3.00290352458530   -2.64219416679416   -2.32711560355066
C         3.64723185366151   -3.54259642356659   -1.49614009261552
C         3.18915656562953   -3.75262739077306   -0.20574517198437
C         2.23263867640718   -4.67802621174712    2.57884941459644
C         1.88409983871546   -5.90103627132423    2.00912403106218
C         2.45768896498093   -7.06927785544055    2.47356211220466
C         3.38012883588872   -7.02861572417572    3.50798591825551
C         3.72854338889963   -5.81574024450127    4.07766995770506
C         3.15625170105155   -4.64336316364928    3.61508888459396
C        -0.23750526473895   -3.65901101475214    1.78134159206375
C        -1.05976391894523   -3.59113413659436    2.90204902278742
C        -2.37342559762993   -4.01394852956989    2.83032845884168
C        -2.87900560559177   -4.51080372586863    1.63965225967428
C        -2.06359768293093   -4.58923056028127    0.52427804714184
C        -0.74613893990364   -4.17027133150644    0.59169157151215
H         4.66236805247195   -1.09962061788565    4.68434652264918
H         4.74417446752983   -2.23081043943474    2.25555240788981
H         3.58580147980909   -0.56618128735582    0.51960243576051
H         2.78826126011545    1.60495572346105    1.86690791548022
H         3.46726531964020    1.27348017557731    4.43703539350655
H        -0.11482013284918    3.35768292653950    4.18384048995270
H        -1.53927590493422    1.85157551668322    5.95150153945669
H        -0.92716910640547   -0.70101752435109    5.32974901566360
H         0.58840669193072   -1.58959602651425   -0.19993857764867
H         1.39894368905220   -1.23287416883578   -2.51413723947775
H         3.36422368667972   -2.48159658739647   -3.33229264201685
H         4.51281658704861   -4.08257814474558   -1.85214578605766
H         3.69420752719466   -4.45581407346105    0.44313308052555
H         1.16320516715655   -5.93020459532555    1.20353387627354
H         2.18439355770942   -8.01583096506599    2.03031669032791
H         3.82441090553892   -7.94384354303580    3.87055054997284
H         4.44479905527892   -5.78328203353847    4.88556060182655
H         3.41591716603815   -3.69124675119847    4.06008465621249
H        -0.66271700132471   -3.19404222142526    3.82762872811681
H        -3.00692689318685   -3.95188919153180    3.70279872116586
H        -3.90792488602677   -4.83365239758617    1.58120534387510
H        -2.45407268035180   -4.97606439899560   -0.40594865755889
H        -0.12003085892725   -4.22961212612666   -0.28803097671052

