61
CSD_code = FOCWEZ | q = 0 | S = 0 | Stoichiometry = C14H39IN2P3RhSi | MND = 6
Rh        5.93900143099478    2.72886161826304   11.53164990281397
I         8.12179691866503    2.72900417087351    9.89555587876402
P         5.91666774011129    5.02010449923294   11.75686777051300
C         4.31714564361907    5.88508523056232   11.46183953669417
C         6.27715646855492    5.71110045863697   13.41428628482234
C         7.06735319545262    6.04509840438526   10.76733790900363
P         4.79082769342491    2.72901109544325    9.46564204781808
C         2.94680555943760    2.72903867268783    9.42288411148402
C         5.10385408506492    4.09932468950266    8.27956783809976
C         4.16506305957590    2.72897950765821   12.69534980403297
C         7.12124630193272    2.72925383411663   13.30795683707627
N         6.44420459502202    2.72901158730969   14.35765844762786
N         5.82333014382696    2.72902637096158   15.31862349907470
Si        8.98994115195054    2.72902077657607   13.61152562693402
C         9.18783523801337    2.72912403568748   15.51048629332179
C         9.92498257212126    4.27061177902342   12.96949529483432
H         3.60573456433293    5.58472341153910   12.22868738108395
H         3.90012967054541    5.63513626888457   10.48930677656615
H         4.47200286428909    6.96217402322853   11.52063692791699
H         5.62173823878914    5.27002603250103   14.16283462725810
H         6.12705560878659    6.79078248922626   13.39217073369175
H         7.30720705903370    5.48858753223961   13.68344423055959
H         8.08604173995164    5.77924367135699   11.04584386103276
H         6.89351500085171    7.10034918621256   10.97784380514460
H         6.94778585852609    5.85613417174506    9.70317674668811
H         2.59994887720055    2.72909032251092    8.38995636387354
H         2.56214379542753    1.84527434318353    9.92922719364013
H         6.15095661269215    4.07660330847339    7.98198679646126
H         4.88228933015566    5.06846756535390    8.72040839969338
H         4.47844917494784    3.95630719188111    7.39809918886351
H         3.27663603959234    2.72892839786954   12.06149934330190
H         4.10099115754314    1.85663835624634   13.34947670254748
H        10.23714372492281    2.72908314478769   15.78453035804476
H         8.72897540016770    1.85540030974720   15.96168785487865
H         9.91304154400153    4.33030238668048   11.88736246550995
H        10.96531598241812    4.21003913748726   13.27543395224447
H         9.52669941712712    5.19995056856554   13.36798601956322
P         5.91665726481509    0.43777839676950   11.75685491469924
C         5.10380190797325    1.35868477978613    8.27956132030217
H         2.56218547613538    3.61277550705054    9.92930629222242
H         4.10093631653888    3.60134824127008   13.34943156617904
C         9.92506611984554    1.18743915612552   12.96957127479800
H         8.72907804548720    3.60297061325562   15.96155591474795
C         4.31707809170932   -0.42707911491403   11.46181493384372
C         6.27716509873953   -0.25326108939022   13.41425308712899
C         7.06730656641993   -0.58719500917891   10.76727149459757
H         6.15089426751869    1.38139395438518    7.98194130643452
H         4.88224242256378    0.38953549352810    8.72039191819563
H         4.47836850122738    1.50171381984704    7.39811466871199
H         9.91311782965487    1.12769771889072   11.88744009019625
H        10.96540165862132    1.24808464078969   13.27548673872942
H         9.52685133473400    0.25808869990773   13.36810162427541
H         3.60570044303821   -0.12671594743924   12.22869390452911
H         3.90007132532794   -0.17703895898740   10.48930036896215
H         4.47190644051534   -1.50417452160051   11.52054793605635
H         5.62180754016116    0.18783468635389   14.16284028362520
H         6.12696454861368   -1.33292766366412   13.39207972823063
H         7.30724998097521   -0.03084614884474   13.68336485746156
H         8.08601169866671   -0.32136114309884   11.04574423270697
H         6.89343107483479   -1.64243725850434   10.97778577084180
H         6.94769258681120   -0.39820740297870    9.70311896104377

