43
CSD_code = FOCWOK | q = 0 | S = 0 | Stoichiometry = C20H16ClN3O2Os | MND = 6
Os        2.83555703815490    2.59893225762644    5.57296707519246
Cl        3.61250659140853    1.59783034026471    3.73476669851529
O         3.96987459736545    4.18642472972670    5.20640239655770
O         1.22682531692723    3.64026607649722    4.68047614569175
N         2.07760688423939    4.01006512957139    7.13459259116912
N         1.25025818033597    1.11668913097754    5.47541940780567
N         3.66647250973006    1.79910145077654    6.77960172767292
C         0.66405219403961    2.52270431666395    8.42698109287667
C         1.16829033220131    3.88472514258149    8.07618891185696
C         0.67587589519438    5.01761991193829    8.75668456681237
C         1.15548843344740    6.26228765749866    8.46017472214454
C         2.15385706498601    6.41049213008111    7.47509633208115
C         2.72596944590459    7.63914634864607    7.10405014290554
C         3.68740274543954    7.67608450656671    6.12375519254753
C         4.11751027458949    6.52149596261855    5.47408009679737
C         3.58284340861673    5.27841893873939    5.80030008541822
C         2.58467204678362    5.22696054481264    6.82364707759740
C         2.65660091825151   -0.79005223052152    6.03479827992474
C         1.33604983497440   -0.18049229414877    5.73687355981202
C         0.17570747472518   -0.98315530514645    5.71458991926078
C        -1.04079516226855   -0.45248905800282    5.39339119168332
C        -1.13635580359248    0.91137726434205    5.04570410409953
C        -2.32204801993257    1.55725329736568    4.66263814917973
C        -2.29491798731405    2.88839586519623    4.31540982972140
C        -1.11722806336036    3.62607526734280    4.32250506361377
C         0.09253723384697    3.03740961567250    4.69477636616705
C         0.06736121985856    1.65689760389253    5.09266346440782
H        -0.27929648039260    2.32778373993383    7.91626018029598
H         1.39288582625308    1.77232121088575    8.12698476878074
H         0.48965544090160    2.45176763149330    9.49772830419265
H        -0.08123051552156    4.87749403655735    9.51268196885641
H         0.78427418929005    7.13821915753097    8.97249177867274
H         2.39741678588635    8.54110911376896    7.59672086691044
H         4.12446509417801    8.62214230621639    5.83975412086569
H         4.87183384918331    6.57032566576771    4.70470050545146
H         3.25049163343757   -0.11063168051256    6.65899588656512
H         2.54822318939269   -1.75444782781115    6.52151869385772
H         3.21413992382816   -0.90949150157452    5.10549519360557
H         0.27514472905742   -2.03102702199067    5.94939900674996
H        -1.93057749547524   -1.06457183159659    5.38038541711360
H        -3.24200118890136    0.99454743350821    4.63694138789396
H        -3.21061670587546    3.37903889183685    4.01854699926642
H        -1.11498287979718    4.66295607440598    4.02316072940699

