47
CSD_code = FOCZUS | q = 0 | S = 0 | Stoichiometry = C24H18N4Pd | MND = 4
Pd        5.03749143752113    3.96758026381225    3.04528870634353
N         4.54677204311303    4.68320548727303    4.95447365577889
N         3.39102632790471    4.39687305349002    5.39754983732827
N         6.70566523455016    5.08872489964268    2.44904608596944
N         7.38829631971694    4.63508729305411    1.47832040489329
C         2.59958751056519    3.73396167171570    4.49624612215282
C         3.16604022766479    3.26094401723421    3.27670647619861
C         2.28859812772680    2.64528735495578    2.38966444373197
C         0.95580380185354    2.42789447255833    2.71698151923008
C         0.44215858885606    2.84696540231368    3.93802384242934
C         1.25807397428360    3.51004762796751    4.82739386351797
C         5.44015143346893    5.30928947879914    5.81438896241420
C         6.79487804171589    4.99165985952851    5.67762795694997
C         7.73314497147582    5.63804476612971    6.45326590644133
C         7.33357643045023    6.61491291010164    7.35473196166877
C         5.98970188795341    6.91868310509131    7.50406289125665
C         5.03715336523038    6.26272316423436    6.74912796802275
C         6.97101843782126    3.40829559430580    1.03217855054775
C         5.74966736109037    2.85991118188298    1.52158763751190
C         5.41900147672057    1.58892587601071    1.06219640582600
C         6.19406658150825    0.93322531556724    0.11344772928755
C         7.35016379864245    1.51548433204746   -0.39131050732528
C         7.74854619983626    2.74933379972100    0.07269078648530
C         7.01910949319087    6.35162825280877    2.93527659476412
C         8.33044521986299    6.81987283445990    3.01430760369435
C         8.57974231215074    8.04558701048603    3.60000432053978
C         7.53469150637071    8.81763046350668    4.08205590940491
C         6.22550820975941    8.37078694274125    3.96831921503416
C         5.96454747402047    7.13960513918533    3.40631920366967
H         2.64352249354523    2.31110547671960    1.42139051815874
H         0.30978140264318    1.92130692634986    2.01324756786974
H        -0.59497240815779    2.66674176367496    4.18020072338872
H         0.88387800527097    3.88560642796578    5.76795516028721
H         7.08250541368176    4.21482862703331    4.96648854293152
H         8.77948985549066    5.39122395442980    6.35265567921634
H         8.07277460005658    7.13716373130876    7.94306026493917
H         5.68370627322369    7.67260384023620    8.21419464393561
H         3.98595888346392    6.48907926039595    6.84517256488083
H         4.53124954960507    1.09194640674103    1.43649567516360
H         5.89115387771743   -0.04259268348535   -0.24045639585618
H         7.93995467313500    0.99546522764179   -1.13191281438864
H         8.66177754656289    3.21451036889827   -0.26691832234032
H         9.13049836835839    6.20003202372543    2.63857060488371
H         9.59561173046915    8.40274610100826    3.68217212519140
H         7.73813482662020    9.77127503193189    4.54514965644436
H         5.41240979213366    8.98309174159887    4.32864501883368
H         4.94343732116704    6.76839420320888    3.29891473270095

