85
CSD_code = FODBOP | q = 0 | S = 0 | Stoichiometry = C25H56IrP3 | MND = 6
Ir       -1.22959793057774    4.44262246567710    1.36788123098660
P        -2.23745626067721    2.49029847916728    0.52213457899444
P        -0.62109799292521    6.67645364495099    1.62232101978986
P         0.61007831255594    3.29381587846808    2.47380312492909
C        -2.85395359866362    5.41177050963640    0.54626251009429
C        -3.98568239614563    5.80730035954170    1.13975917743009
C        -4.28762046433343    5.67208719144539    2.55445659696236
C        -3.54771811778857    5.05483379588945    3.48273984798382
C        -2.28745431444983    4.29624859710589    3.22575150724102
C        -5.08216069815870    6.48154980229810    0.34395695032765
C        -4.02099924728204    5.03793987363909    4.91431117749324
C        -1.16716896803534    1.11401251997405   -0.14110630425368
C        -3.42186512738439    1.44640157630613    1.51240360216760
C        -3.27004294448517    2.82932095046410   -0.97746478625163
C        -0.32306120851961    1.54807133226507   -1.33187568965284
C        -4.74671176013025    2.14769908959953    1.78160115529728
C        -3.90563128513391    1.64487001488659   -1.69649243014638
C         1.14338515713480    7.05898709606155    2.07156809801742
C        -0.81672398761640    7.72926224990978    0.10429704966537
C        -1.56068953228833    7.81161325202753    2.75412304342493
C         1.60905795414729    8.50831935663892    1.99692470666550
C        -0.00888450917420    7.27052325776123   -1.09893017329065
C        -1.24924737358106    7.67020474486477    4.23582690656375
C         0.03303936397154    1.78765619150821    3.40467262580093
C         1.94225743656610    2.55947207623075    1.40155803701584
C         1.77369690025183    3.99359587384257    3.75473111923125
C         1.05457170133001    0.74776698755438    3.84642624364034
C         2.62428380781787    3.60289613490001    0.52720517067218
C         1.10691685471559    4.55680678042135    4.99942683128341
H        -0.41860050838590    4.48096217786080   -0.01645010859620
H        -2.79830031596804    5.61362621129974   -0.52565437461509
H        -5.21385310887404    6.14602707580764    2.86750805142368
H        -2.55033154997826    3.23962861925011    3.38961437376324
H        -1.62048053668517    4.51509759450866    4.07402609723536
H        -4.81249772730752    6.56647815507994   -0.70695234202188
H        -6.00898240364051    5.91116645612890    0.41887906344839
H        -5.27612639239837    7.48206710124579    0.73319510214223
H        -3.28137736963026    5.49498197842724    5.57359642386101
H        -4.96155554510415    5.57381520073598    5.03224312536994
H        -4.16531575046247    4.00974797747118    5.25131254542629
H        -1.80423954796570    0.26766620193631   -0.41178734920152
H        -0.51641126220832    0.78268208246168    0.67188224609892
H         0.45646607801357    0.81561194494005   -1.53993189231262
H        -0.93292843373220    1.65495494320500   -2.22514963738569
H         0.14138438385294    2.50964499242675   -1.12634995249686
H        -3.58667453258811    0.49888761833039    0.99190348679336
H        -2.93534566696002    1.21217371568343    2.46287010111435
H        -5.31521995432943    1.60364624313063    2.53536253770491
H        -4.57614493698583    3.16039919604790    2.13824764568727
H        -5.35080970205262    2.20418784752873    0.87969572607255
H        -4.04421345526172    3.52467123076030   -0.64697963553312
H        -2.61841706010439    3.37942861050654   -1.66017086751899
H        -4.51414020375738    2.01328305722524   -2.52171707898208
H        -3.15948482818538    0.97243240517969   -2.11162843173699
H        -4.55359638087222    1.07386830760508   -1.03666181953260
H         1.27476341520468    6.69093394313926    3.09058620897157
H         1.75596909451857    6.43357147512677    1.41681677521130
H         2.61811429095248    8.58668577033660    2.40164838355324
H         1.63502862624937    8.86687264618432    0.97167083696751
H         0.96432269622289    9.16312618751334    2.57795099637943
H        -1.88167276383409    7.72079784418217   -0.13561132926695
H        -0.54171171831778    8.75328242499288    0.37069861632937
H        -0.22380010541111    7.90019161945383   -1.96117319416371
H         1.05890145342925    7.31851912322477   -0.89568634271744
H        -0.26135450886942    6.24284527889311   -1.34353946694011
H        -1.38641064427236    8.84310450008172    2.43517183567682
H        -2.61343393731409    7.57791414588459    2.58305450153266
H        -1.89845738813895    8.32553201742859    4.81541175801994
H        -1.42737497604647    6.65074426161224    4.56022316128489
H        -0.21729448230751    7.93613270137890    4.45709349425152
H        -0.49761680855475    2.17740792911691    4.27751158516145
H        -0.71842137809576    1.30791043610570    2.77233571151651
H         0.55151499541160   -0.02915483655919    4.42161603816531
H         1.53183957438720    0.27280553464406    2.99234473674741
H         1.82490587870331    1.18020064346177    4.48019552680131
H         2.68294000399550    2.05581428563283    2.02819124766020
H         1.46716827137714    1.81405863134290    0.76289534266012
H         3.26897451940224    3.12253731619757   -0.20730758155782
H         1.87405860242542    4.19035275695477    0.00118223201893
H         3.23558963253701    4.27694956330295    1.12379257677838
H         2.47556109507629    3.20345151463787    4.03667390289057
H         2.35106523078616    4.77762834547986    3.26019407269963
H         1.85116564257035    5.00584395304181    5.65743654004720
H         0.38145826267301    5.32077573081907    4.73238922486492
H         0.59328436474860    3.77642722862530    5.55695664442771

