46
CSD_code = FODBAB | q = 0 | S = 0 | Stoichiometry = C21H21N3Pd | MND = 4
Pd        1.09429032351063    1.95434311876590    1.15606247987204
N        -0.42237946999249    1.02573732792027    2.17600341940252
N        -1.61549126667008    1.40920109990804    1.94758609817254
N         2.80993643513309    0.38840908675887    1.12772634113461
C        -0.63909705484848    3.87326946679159   -0.56724914822220
C        -1.89269425370977    4.25955081441066   -1.02321764352120
C        -3.04995457330717    3.68699777098019   -0.50818726935595
C        -2.95985351861078    2.71752223565501    0.46520464686651
C        -1.69998661358207    2.32261526629514    0.92973017639450
C        -0.50419829864755    2.91764874942703    0.43234662761281
C        -1.02447556567172   -0.78560290128308    3.71603944386251
C        -0.67109042574626   -1.54266320218984    4.81715426499193
C         0.49346949686612   -1.26607396418080    5.51645726369380
C         1.31642400008431   -0.22055961039493    5.11863632083443
C         0.98771429760910    0.52917626786691    4.00855077909617
C        -0.18388578193695    0.24469365200242    3.29798964754906
C         2.28397632488435   -0.97411908416505    1.10303656291094
C         3.93407791644347    0.46790740032380    2.05480440379530
C         3.27029714178258    0.77806308868559   -0.22109116053160
C         3.51505151729732    2.26897475027138   -0.25660964947949
C         2.51948065433080    3.07740912260413    0.31424823323328
C         2.73145684363494    4.45323294717633    0.32826934059236
C         3.88107535862401    5.00452622342516   -0.22250588707248
C         4.84212877873956    4.19098888421362   -0.79462221074083
C         4.66229837786695    2.81711270559071   -0.80559707885853
H         0.24061694029544    4.34071036252348   -0.99307145085481
H        -1.96995026478232    5.01918545895899   -1.78859380880024
H        -4.01664054658280    3.99896119642732   -0.87593184846371
H        -3.83868547329167    2.23984479572908    0.87157086113658
H        -1.92837778218577   -0.98414236506942    3.16053276110731
H        -1.31081194528078   -2.35151769099937    5.13791653141022
H         0.75989247210147   -1.86135440742348    6.37680424316398
H         2.21219396341945    0.00425947609098    5.67976729944174
H         1.60142064231591    1.37423934057589    3.67770466494390
H         1.99332365419894   -1.27801672788148    2.11011748269157
H         3.03391671330404   -1.68657703458554    0.72752914128435
H         1.40283113823751   -1.01760200764205    0.45545343591616
H         4.30475785145374    1.49320928059025    2.08912055769437
H         4.75513554634150   -0.19225500753467    1.73790910916973
H         3.61794710040174    0.16880336811758    3.05368641015802
H         2.47259397156012    0.52992715963722   -0.93804031595542
H         4.17493210016973    0.21176712279010   -0.49911952416084
H         1.99040977812958    5.11188304157140    0.76968155258685
H         4.02532224299455    6.07615344220616   -0.20516159719265
H         5.73423235153453    4.62178317994321   -1.22635217024725
H         5.41566890167022    2.17477679913758   -1.24368933729029

