60
CSD_code = FODCIK | q = 0 | S = 0 | Stoichiometry = C24H30Cl4PTa | MND = 10
Ta        7.20469770817429    1.86574340866329    6.97279337975309
P         6.46955989006023   -1.05185791670438    8.80907479582116
Cl        8.50786701875765    3.27739859830290    8.28132682898815
Cl        9.17721179127062    0.78085978462681    6.23641300624235
Cl        5.97947409748803   -0.13921426875407    6.33370707038901
Cl        5.34182109686987    2.40784400547932    8.34542717763921
C         7.24208519063477    4.44988046510247    5.52540220388052
C         7.91932788380867    3.42219086653302    4.82336179371014
C         6.97197500364621    2.40987884178258    4.48779065711691
C         5.70367421612682    2.82880228870281    5.00494169381356
C         5.88117726554975    4.09132652042003    5.63216262694390
C         7.89398049519874    5.67813509306517    6.05516606449521
C         9.34746096167563    3.47734506610634    4.39357363423580
C         7.20284766155511    1.31017412263397    3.49897077537676
C         4.36944098987503    2.21424463854414    4.72931865640836
C         4.77286970099123    4.88791210986917    6.22777288353244
C         7.53794070353526    0.38732480288633    8.76184995877627
C         4.66131734081487   -0.81999863302862    8.86938283048448
C         6.82914374087306   -1.66610315825620   10.49840818330722
C         7.67351356614364   -2.74251332319120   10.73683555550102
C         7.96615894209575   -3.12184390866036   12.03577675086455
C         7.42883339247132   -2.42332954206004   13.10327709499279
C         6.60140482495506   -1.33552484249963   12.87186937890529
C         6.30638824883180   -0.95637988810703   11.57623855767124
C         6.93158290109337   -2.48024970755107    7.79672949213118
C         6.16296643168775   -3.63152559005862    7.92740655014823
C         6.49239960863741   -4.76206062060883    7.20288192798608
C         7.58980626891484   -4.74543112371057    6.35667857534603
C         8.35588852252091   -3.59764748480119    6.23299393559961
C         8.03205862056962   -2.45983874975414    6.95112860479060
H         8.62649107219336    6.06332747095311    5.34805332745856
H         8.41688880768481    5.43987470735547    6.98652344607604
H         7.16517667420363    6.45616776109925    6.26766167698013
H         9.96649811127519    3.90675262082243    5.18019102789166
H         9.45159437673910    4.09583504349883    3.49997765106411
H         9.72270479851269    2.48338496682283    4.16250127811507
H         6.43495811225477    0.54461271725686    3.58051766304112
H         8.16987167438030    0.83907895988720    3.66893738239359
H         7.18895265168800    1.70746343674790    2.48289916930779
H         3.74603469855722    2.25022051565631    5.62201362633084
H         4.46763743488503    1.17776504993305    4.41866974578489
H         3.86033651307307    2.76391272190978    3.93556797459852
H         5.10832439626826    5.87824925067477    6.52336799634722
H         4.38075989039138    4.38285448721084    7.11351358981726
H         3.95272434121987    4.98883274390688    5.51679858156634
H         7.36080360580674    0.90957911990824    9.70898222400134
H         8.56104105261674   -0.00613712819208    8.79263079540877
H         4.21226680844160   -1.33494673709347    8.02261771111808
H         4.44350220015910    0.24668033113020    8.78979237274945
H         4.27228296603513   -1.21835653347867    9.80455680112359
H         8.09996993499923   -3.28639409843108    9.90621095796350
H         8.61884489284857   -3.96364617949805   12.21323242741711
H         7.65926740231210   -2.72084202797858   14.11516453725138
H         6.19081136516395   -0.78113670331113   13.70265332753101
H         5.67271230038689   -0.09864460687435   11.39324717927263
H         5.31534026757635   -3.63774818738275    8.59902120099123
H         5.89408279676699   -5.65603123591062    7.29827798572821
H         7.84532181310316   -5.62881665892182    5.79067416168701
H         9.20757598071452   -3.58373851807664    5.57009480220547
H         8.61024897489096   -1.55459514455836    6.83248873395611

