60
CSD_code = FODDEK | q = 0 | S = 0 | Stoichiometry = C25H29I2N3Pd | MND = 4
Pd        1.30622186367257    5.75507117433744    4.41484847717120
I         2.40014344536349    6.26119026279243    2.08780961384746
I         0.19999590905501    5.57413556228467    6.77822070117444
N         3.11505935208057    5.57628721468285    5.24387081161918
C        -0.47417525374616    5.98387990115464    3.62831096205891
C        -1.57835740831397   11.78486233004453    2.98873742342055
H        -2.13103806947366   12.63765975509766    3.35412799553413
N        -1.05139618953856    7.19503901740050    3.62460866303619
C         0.23640682328293    1.66395693456873    3.22282101252864
H         1.08350042929092    1.27483065922853    3.79898802896155
C         0.05006899021451    3.14558347945719    3.55527966486202
H        -0.15274995486515    3.25401391562538    4.62965102930070
H         0.98745948659813    3.67284645923695    3.28773126108694
C        -0.15907161726362    9.59643870552281    2.06095090960636
H         0.40129139530807    8.74705511717453    1.69888833140270
N        -1.32935585353646    5.13859953898399    3.02763755362635
C        -0.47464335690917    8.38148223087053    4.22786547209449
H        -0.93020379244013    8.53983562243468    5.21379132025541
H         0.61213041603761    8.18721212324154    4.37250800621133
C        -1.12709253586801    3.71182023928220    2.74961127351793
C        -0.35445037107294   10.69226517993310    1.24095206574057
H         0.05228689268172   10.69058103711677    0.24104658802789
C        -1.38821531942871   10.68663091752322    3.80954002947138
H        -1.79195113994606   10.68512989988069    4.81232503697511
C        -2.39121741857461    2.93183911142442    3.13265713773335
H        -2.58732021561659    3.05864953518297    4.20022037150742
H        -3.25573543488702    3.30784952278522    2.58429559810416
C         0.52112024845793    1.50933047174806    1.72965312945104
H         1.43199696903607    2.04984082800346    1.46253240582657
H         0.67427297094123    0.45587536217513    1.48808830393905
C        -1.06439994463632   11.78795780410026    1.70341229192493
H        -1.21529168937440   12.64448938426613    1.06342549941559
C         3.66954960653650    4.38351259432713    5.42893532838164
H         3.09708891394703    3.52136145111252    5.08636245437978
C        -2.20179169839397    1.45151760427512    2.79945259561932
H        -3.11605897686414    0.90971731066742    3.06425737428570
C        -0.67599655359441    9.58729385068144    3.35115387322658
C        -0.84147099828816    3.54384840764888    1.25194463195174
H        -1.66889907867694    3.95411207908290    0.66846295678537
H         0.06106859445649    4.10018901152291    0.98733699354294
C        -0.65952991756858    2.06068605312512    0.93266005032607
H        -0.46239146684174    1.94929473353790   -0.13843110001001
C        -1.02636521044473    0.89133203537019    3.59520228905823
H        -0.89438033190665   -0.16864882626474    3.37030747095235
H        -1.22079352350487    0.98556190763797    4.66583282052654
C        -2.44155911074360    5.84268245653190    2.62829629397648
H        -3.25977668939080    5.39557022602428    2.10566833408281
C        -1.93038314781962    1.29651568755226    1.30297264673150
H        -1.81160798092210    0.23962025877928    1.05702134637516
H        -2.77676433059641    1.67929724609622    0.72792681027681
C        -2.27171924445867    7.12760708023069    3.01039485762157
H        -2.90221095067824    7.98421616634206    2.89180004246512
C         3.75926963303340    6.66624812701144    5.64829844009504
H         3.26072419831590    7.62133280790740    5.47439054219571
C         4.90638256569895    4.23209733761638    6.02953384802156
H         5.32458996176851    3.24707868390624    6.16224937127673
C         4.99840017749463    6.60529660683009    6.25913147912684
H         5.48947885320065    7.51188781060884    6.57465029681263
C         5.58515388538362    5.36419435326935    6.45336480505025
H         6.55140319431713    5.28093764102538    6.92681617741878

