71
CSD_code = FODGUA | q = 0 | S = 0 | Stoichiometry = C23H33NO8PReS4 | MND = 5
Re        6.83115603243634    2.74110838335617    1.42582593204424
S         5.71499061340836    2.11759233091986    3.35684009698980
S         4.91588774324754    4.04544828022769    0.91982130443010
S         6.33024278758533    1.67590507927518   -0.56927862414060
S         8.22186778438976    0.82976572852488    1.86212435948272
P         8.52004666166652    5.91000885507911    3.25782193908515
N         8.02250997799702    4.00301895278213    1.66168049859949
O         4.20047275734544    3.30662030557372    5.89758444832239
O         5.19776717457624    4.99290815871521    4.80984282909691
O         2.49903669373837    5.42189634084399    3.72779737438882
O         4.00224959401736    6.45212213480480    2.42587023365882
O         9.40513219997048    1.65631740290760   -2.49346764642334
O         9.12131918234939    2.83866959967973   -0.61129010680246
O        10.10578789711194   -1.51589790809274    0.73543814491712
O        10.64896015578201    0.38755806972258   -0.31742380421633
C         4.20207157891170    3.16720963130757    3.57181329594784
H         3.42199757336671    2.45226241578199    3.84017454853459
C         3.78952311002856    4.02183224284460    2.37572934869649
H         2.85490699456370    3.62068544532994    1.97004747003829
C         7.87905953746310    0.79271318228922   -0.93300317439899
H         7.70361030310084    0.16025380231102   -1.80811298421446
C         8.35037147413433   -0.04336034270014    0.24451124075255
H         7.76577262750393   -0.96117582530596    0.34637725094205
C         4.58585501235469    3.94879983500855    4.79407854796081
C         4.60775342295947    3.86179572546254    7.13852637994091
H         3.96506878526696    3.42193946986996    7.89697902948048
H         4.49717196534227    4.94828741212912    7.12183501277158
H         5.65172191464289    3.60842669410362    7.33637390206342
C         3.49050592980250    5.44414283763148    2.82110952506446
C         2.13022822598557    6.68364351508050    4.26787911563350
H         1.26641913092870    6.50250269860257    4.90224670629424
H         1.88259009494001    7.38080644322768    3.46522048211796
H         2.95809148285437    7.09355957049404    4.85069880456246
C         8.88783308095920    1.86683349771352   -1.28715838780939
C        10.39448264180465    2.58762307427935   -2.90758273271580
H        10.67739296514975    2.30204681778167   -3.91737027373490
H        11.25185540701000    2.52854990939121   -2.23443155233497
H         9.98916848548651    3.60181166349576   -2.89117065177483
C         9.81936068983687   -0.34353373058771    0.16896889392828
C        11.48438694228618   -1.84720783161902    0.82203083779958
H        11.52801076663059   -2.85800647840810    1.21908679517780
H        11.99678351256585   -1.15075623361208    1.48856128102480
H        11.94804102637822   -1.79854107202322   -0.16568282926599
C         9.08524606506427    4.88664945568132    1.77405808499553
C        10.39211527734420    4.14765432363128    2.07237782299264
H        10.28887709567893    3.54246881970569    2.97050331529794
H        11.21967221448887    4.84708235603587    2.16990967666659
H        10.57482157333050    3.47215994617084    1.23951997985863
C         9.21123677867484    5.79818310757809    0.55104073542357
H         8.23997935149743    6.21380813097258    0.29377922673603
H         9.54258139460006    5.18299548332973   -0.28084662449245
H         9.92966730543016    6.59573413580800    0.73694882025829
C         8.24345668402226    4.74227451455206    4.60666440128821
H         9.15656870594713    4.54474538934614    5.16377123778684
H         7.86046822821112    3.81945140646472    4.15364161816605
H         7.47936525679922    5.16090649098751    5.26034347000653
C         6.93970550556290    6.61584587318765    2.78589245787156
H         7.05233319523746    7.43009736115111    2.07386502241078
H         6.40548175644045    6.95106299388905    3.67301626467996
H         6.36210816868973    5.81018888219248    2.31600816534811
C         9.69085019025641    7.18466667713777    3.78850002591071
C         9.43735586606892    8.53341465641840    3.55962561812696
H         8.50970083153697    8.84001903803030    3.10143745741078
C        10.37075338573802    9.48291182247333    3.93561768264344
H        10.16917541845475   10.52951921431764    3.76401696088113
C        11.56080214914238    9.09465095495550    4.52919322822224
H        12.28709640759160    9.83846163807979    4.81919501590427
C        11.81991877107180    7.75059582214271    4.74997085857681
H        12.74828109061316    7.44773564815662    5.21032577767765
C        10.89157253787430    6.79619215383178    4.37969611735724
H        11.09414685669416    5.74853761952974    4.54840472011809

