48
CSD_code = FODJEP | q = 0 | S = 0 | Stoichiometry = C19H23N3NiO2 | MND = 4
Ni        4.72347778175512    2.04916387988782    8.84677673710005
N         5.93267631291336    0.96704715868295   10.07048882727758
C         6.79797026327264    0.20718210552873    9.15475422372906
H         7.22693037653218   -0.67601996493141    9.64281676483361
H         7.61725081971864    0.85866645021620    8.84668665644687
C         6.02791831145052   -0.19657834825313    7.90006322141542
H         6.74485613214919   -0.55770929187589    7.15298235161007
H         5.32895844008851   -1.01503653929156    8.12227280760660
N         5.30308698749295    0.97020528719931    7.41861176236218
C         4.92612440621198    1.02375834431309    6.16989373852668
C         4.28922552618218    2.18561228663615    5.62462796319668
C         3.70994943346978    3.14827308300805    6.49107985452659
C         3.03808423985738    4.29112292631527    5.90608980864999
C         2.42593057129439    5.24385451270214    6.73510177170914
H         2.47299610818753    5.09805187803949    7.80357519595322
C         1.78360870006035    6.32832860563583    6.19320790949122
H         1.31206037915515    7.05679203727707    6.83571238991902
C         1.73648577797631    6.49382884786526    4.80600078371831
H         1.22850606625750    7.35067736684311    4.38693846455693
C         2.33324851109547    5.57694020922392    3.97855968132144
H         2.29995033004478    5.70379106347306    2.90548850504507
C         2.99579893801832    4.45615536417256    4.50623536416180
C         3.63078109724697    3.49292319922897    3.68009136917348
H         3.62790934010395    3.64286299845491    2.61039546253392
C         4.23691008662434    2.40718924021735    4.22048450857771
H         4.73681163105790    1.71413067637358    3.56101973893076
C         5.14868262300921   -0.15813768504815    5.26100890030771
H         4.46876747484261   -0.12610113085377    4.41662975087607
H         4.97019274562799   -1.08914021598148    5.79580449121299
H         6.17259200433025   -0.16751939621156    4.88524497240939
C         6.75455291390744    1.81962634739938   10.95087042752854
H         7.57239476149329    1.23259893724538   11.38718407213596
H         6.10297693795749    2.17958556211596   11.74828245485681
C         7.31555646743967    3.02987232798641   10.20913170205603
H         8.17355206840604    2.77965009718346    9.58900936691220
H         7.62323594107484    3.78886723752509   10.92256340395349
H         6.52505204868954    3.45541633565810    9.57391724239069
C         5.05946083305849    0.07672693369125   10.86468152016666
H         4.50260774621515   -0.55597378111244   10.16866099420539
H         4.33860864673126    0.71519295465265   11.38169330084779
C         5.75734346326575   -0.81025739809637   11.89669274049991
H         6.49658249615320   -1.46951856714416   11.44725324230368
H         5.00653321998275   -1.43362184868931   12.37537866820576
H         6.24036175629044   -0.21754068061320   12.66806928183753
O         3.68612241603405    3.05983543161894    7.76710052629198
N         4.04697985068286    2.94511713442127   10.30984580592223
C         3.32397219183343    3.77519653329306   10.74800389892128
O         2.65836482475538    4.55201149401717   11.32151737378531

