77
CSD_code = FODJIT | q = 0 | S = 0 | Stoichiometry = C34H34Br2N4P2Ru | MND = 6
C         4.74923265817348    1.73015384315612    0.33445775521232
C         3.30731227104244    1.75924993447263    0.68497203933420
H         2.98453868617171    0.77737318428649    1.05533730213470
H         2.67862972681615    2.04296000578359   -0.16576928460723
C         6.88715016636862    2.01438544701795    0.48708388559520
H         7.81888078956399    2.29875436589634    0.93717959544874
C         6.64651610900733    1.41645470434779   -0.71290670031145
H         7.31252218830582    1.10129727819673   -1.48864769361315
C         4.57689828726915    0.60374443661145   -1.87342012474074
H         4.01513661412463   -0.25255062052730   -1.49470612767899
H         5.28834552325423    0.25948164871233   -2.62134447860574
H         3.87869524657288    1.30244863359395   -2.34165749191811
C         1.57334164463005    2.43655969840093    2.83834677693943
C         1.51954932975086    1.98716082431223    4.15011164614594
H         2.43086298496372    1.92233878178246    4.72928680747155
C         0.31078491357695    1.60523997094016    4.70355316144217
H         0.27509418847899    1.25459075574102    5.72391595181590
C        -0.84609896271230    1.66738170157777    3.94660056378543
H        -1.79115626232804    1.36879607005517    4.37630993037566
C        -0.79532132661695    2.10756354423337    2.63238114599537
H        -1.69852949754264    2.14947437016915    2.04045959777409
C         0.40867375330454    2.49340166382900    2.07665032310180
H         0.44930133149609    2.84702917551434    1.05439301674331
C         2.68418977187494    4.47425812967819    1.24372473866699
C         3.29446928224292    4.82288709824919    0.04203044916458
H         3.98154180088075    4.13384515266165   -0.43298775604286
C         3.02270209249175    6.03898981567379   -0.55675938632719
H         3.49815805092746    6.29725211758122   -1.49256515632282
C         2.14310081995196    6.92575424104323    0.04162549072023
H         1.93125120478370    7.87588853156358   -0.42641874104229
C         1.53408628879504    6.58881674061648    1.23982945848236
H         0.84274606915841    7.27645012546406    1.70584472528687
C         1.80581682680888    5.37426942323579    1.84071169135729
H         1.32831910540900    5.10569282521808    2.77308687834842
C         6.13037816212081    5.56565787618594    3.66996786722137
C         5.98906155929081    5.19280006258084    5.09676755956213
H         5.57034390987578    6.01231421963883    5.68913592179817
H         6.96989416469152    4.91743362671798    5.50634481178084
C         6.12890776456303    5.44210780238205    1.51581223102909
H         5.99141444165217    5.01069708109682    0.54489190075563
C         6.63721021168237    6.66259371545026    1.84402096760078
H         6.99509731276853    7.46341838685963    1.23112537418600
C         7.12262785081190    7.81568454372479    4.01533398143020
H         6.31833739326648    8.23359011119741    4.62600344405534
H         7.51662688009250    8.59525273724554    3.36699866532037
H         7.91770418806809    7.46385523131688    4.67587069562281
C         5.50896574912550    2.90540905142664    6.71497610674929
C         5.86380137218498    1.56379075988710    6.76636492460222
H         5.79707783027255    0.94761682262625    5.88114419285667
C         6.31598186521799    1.01615344725718    7.95487676786106
H         6.59604306524932   -0.02567547655168    7.98818851031417
C         6.41269047997216    1.80200042981363    9.08940096747858
H         6.77009042279938    1.37578532754503   10.01557009417567
C         6.05056030244645    3.14038330713986    9.04231850803973
H         6.12313863855414    3.75305423455697    9.92995314966065
C         5.59759112099834    3.69358082990570    7.86135884022001
H         5.30359190536414    4.73485350643122    7.82535394279292
C         3.34774476290698    4.38417675034074    5.68572337961888
C         2.86283414763841    5.49301406437530    4.99989056521245
H         3.45270330383992    5.92705971688041    4.20004119259753
C         1.63270258538860    6.03297345076658    5.32571316603105
H         1.26875458410436    6.90369967745434    4.79784353443378
C         0.86479348912486    5.45522154997732    6.32365617864600
H        -0.09880441274654    5.87405683203812    6.57409277303600
C         1.33151371282017    4.33664292241837    6.99398023544777
H         0.73003155419118    3.88061804411904    7.76665227894475
C         2.56630462450475    3.80116126586596    6.67791218961704
H         2.93134076823002    2.92702603007732    7.19992749755529
N         5.69934239895649    2.20335931665467    1.12269678798069
N         5.29097015062927    1.24084913043420   -0.80342369811216
N         5.81177340706358    4.77581742648595    2.65805368891501
N         6.63443097481679    6.73346016301529    3.20877447601595
P         3.16463283229953    2.94997190227308    2.12354849314156
P         4.93170853192895    3.64329230124030    5.15626022601444
Br        4.55265818433726    0.40556300555886    3.46775177081840
Br        7.61457710468301    2.51995604513920    3.86641547694060
Ru        5.21230902725624    2.82922915124154    3.06590037190917

