31
CSD_code = FODKOY | q = -1 | S = 0 | Stoichiometry = C12H9N6NiS3(1-) | MND = 6
Ni       11.06000298484882    1.95231870643566    3.51917358537077
S        12.71545501552051    0.78495109553523    1.77560134831846
N        10.35657389935625    1.78812329948846    1.41660124137080
N        13.33850946228855    4.78089130716032    4.66914407344274
N         8.13709702272351   -0.12885525136474    4.88094133092877
C        12.59274712476627    3.70382795606047    4.41571096873521
C        12.55519824718025    5.70188211743862    2.62023363961020
C        11.38738710782603    1.13489685415861    0.80214892229141
C         9.17560973471785    1.72039878798053   -0.63075160316321
C         9.02236153120314    0.75855813837244    4.41925886756185
C         9.78591059683531   -1.81829742642732    4.57462171007994
S        12.51164977393737    2.37567739723750    5.45577796068772
S         8.67579051605980    2.40357361649712    4.27597023201889
N        11.81963513718612    3.56825150625576    3.29573512103383
N        10.28208446706209    0.41252667311139    4.01407753217315
N        11.35955069052930    0.78332560033146   -0.49232603982714
C        11.80347607352545    4.55205259541903    2.41738528321094
C        13.31487292940310    5.75225679605687    3.78479012611859
C         9.27925344681562    2.06266862228814    0.71133094612080
C        10.27937398407949    1.07332146837691   -1.17786346564989
C        10.65751839246565   -0.84962033972550    4.09360075670631
C         8.52023998705452   -1.38343513485734    4.95430757277768
H        11.18408686457713    4.42728474446812    1.53571727417727
H        12.54658199823452    6.50870626295269    1.90607267269609
H         8.47932264249924    2.57057138462070    1.23891067953226
H        10.29480853817818    0.77121886518141   -2.22060771014853
H        10.08257444341467   -2.85158680693215    4.64495488328294
H        13.93213539914754    6.61280556353269    4.01807168313767
H         8.29383223614923    1.94401534005802   -1.20872371163940
H        11.66247411269461   -1.08866166872016    3.76308476831146
H         7.77718563972000   -2.07624807098698    5.33454935073236

