39
CSD_code = FODLEP | q = 0 | S = 0 | Stoichiometry = C14H18N2NiO4 | MND = 4
Ni       11.97965241219327    8.34969398961465    4.96219767073865
N        12.82067601323200    6.87747878907883    5.66001290541320
N        10.98259485956152    8.42555313503390    6.49905962937126
O        12.95014152634419    8.20541694735040    3.39674585236400
O        11.16275448919013    9.87513087476231    4.31509078392895
O        15.59021160625736    5.27870526478138    2.11966218875894
O         8.45954919841663   12.45505107834683    6.10674325730170
C        13.75360008094785    7.33132821647612    2.98175499677103
C        14.16451021801530    6.20866000081515    3.75948093914583
C        13.67375543344722    6.08675735102879    5.07448616061233
C        12.51376100422111    6.64944708326128    7.06831419941416
C        11.13134255515055    7.24488057685617    7.34365982187136
C        10.14431125377694    9.35134269555317    6.86786228190306
C         9.79473800836667   10.50488872325862    6.13851520699189
C        10.34930105732218   10.68034401096886    4.83641113098724
C        14.27283150827197    7.54764754202120    1.59177742264388
C        15.08536047231158    5.20480241132366    3.22478809195467
C        15.41254030566978    4.00755542633523    4.10360379384490
C         9.98393249134445   11.86102418884032    3.98730448295344
C         8.86968779345448   11.48257005145487    6.71307519727826
C         8.41420733470224   11.26435784034075    8.14754280853795
H        14.05112994327540    5.26045070361849    5.67300570453662
H         9.65675959766760    9.20233486722339    7.82890423296299
H        12.54124940154154    5.58083457586966    7.31322732261478
H        13.26508027208691    7.16639570394229    7.67959283169317
H        11.01233555028941    7.49724971167475    8.40422601183302
H        10.35632196952487    6.51714314148527    7.06962954381579
H        13.83032710315944    8.45586592181452    1.18955197179292
H        15.35704302221407    7.62798524982877    1.60399369307583
H        14.02794735832507    6.69595405565503    0.96184687895584
H        15.94070120675658    4.32002489275642    5.00179214780038
H        14.51040110591429    3.46855607101146    4.38262136180649
H        16.05878986221226    3.34287577810147    3.53538777264844
H        10.52980203014186   11.80042976894469    3.04879518690831
H         8.91266062074966   11.87175749233882    3.80160576146191
H        10.22228851090425   12.78662696392944    4.50552111801118
H         9.26381935643594   11.19747512856050    8.82263341327793
H         7.79931852473120   12.11351564818919    8.43579672968393
H         7.81456494186992   10.36028812755163    8.22887949433317

