37
CSD_code = FODMEQ | q = 0 | S = 0 | Stoichiometry = C10H24N2Zn | MND = 4
Zn        8.52199892301547   12.36700003589787   -0.13706581181153
N        10.36888707383354   11.72491597385224    1.26953881531660
C         9.63692837060503   14.08445310895312   -0.40196773747233
C        11.06413337359479   13.78394630491033    0.05214701781681
C        11.08656562935720   12.99577141101732    1.36184670760333
C        10.11256050029228   11.19051194377696    2.59700146149925
C        11.13803435610867   10.74925206864820    0.50942372653075
H         9.25018142690123   14.89453508025638    0.22164175074365
H         9.67958949493646   14.48571225287632   -1.41579498536386
H        11.63225874393327   14.70869950649241    0.21834860643493
H        11.59005031102018   13.22372374713417   -0.72364124911810
H        10.58947824455474   13.59944138833479    2.12578310538062
H        12.12825789585492   12.82658586961226    1.68296857333735
H         9.55096751724523   11.91533492903693    3.18305772395407
H        11.04438060649478   10.95702308510590    3.13360425559909
H         9.52304721607138   10.27881202130817    2.51176917744249
H        11.28810306124904   11.10533496775121   -0.50650767386533
H        10.58568583567980    9.81245984017583    0.46326400628838
H        12.11903996155641   10.56037613109407    0.97014987597477
N         6.67511205086553   13.00908431723258    1.26953921113762
C         7.40707226225390   10.64954560836764   -0.40196954267451
C         5.95743393538785   11.73822881023650    1.36184760014295
C         6.93143909357074   13.54348831194393    2.59700169188483
C         5.90596480278385   13.98474782587564    0.50942369403223
C         5.97986834014082   10.95005450106863    0.05214746384784
H         7.79381936813944    9.83946397419148    0.22164028171227
H         7.36441171184422   10.24828697920592   -1.41579715062209
H         6.45452201454413   11.13455894582012    2.12578359335992
H         4.91574170878821   11.90741424047168    1.68297002363359
H         7.49303257000765   12.81866551314365    3.18305775490514
H         5.99961908297406   13.77697701567772    3.13360467155583
H         7.52095211108159   14.45518836024031    2.51176886367514
H         5.75589631848602   13.62866473610531   -0.50650764846743
H         6.45831304571496   14.92154014613356    0.46326384946696
H         4.92495915206571   14.17362354988560    0.97014973425905
H         5.41174338733103   10.02530124575009    0.21834927618073
H         5.45395050171277   11.51027625241116   -0.72364071431776

