33
CSD_code = FODPET | q = 0 | S = 0 | Stoichiometry = C8H21ClN2Pd | MND = 4
Pd       -0.02092990296935    0.28283686019892    8.80611045076457
Cl       -0.78563142579897   -1.73169369609729    7.82839334677322
N        -0.08590630019185   -0.37208845347398   10.66116528449640
N         0.10889221584138    1.19678528381815    6.96287814685668
C        -0.57760927891490    2.89843939170691   10.07282893022407
C         0.49956200485338    1.81743447440768   10.01494099721347
C         0.56198438276291    0.85918895511112   11.21016225875316
C        -0.00100503705906    1.33134358721563   12.55157618277813
C         0.67037807985367   -1.59483979865899   10.89238926405127
C        -1.49170754206317   -0.56514713627723   10.99321764536541
C        -1.23429962522185    1.24849066498621    6.38600205044523
C         1.03936751166006    0.45769908038892    6.10886917206202
H        -1.58480925539176    2.47332686041272   10.10390629183203
H        -0.45534684671815    3.54051190566883   10.94967389996314
H        -0.51147238082567    3.53753880511006    9.19121826710942
H         1.47820180641030    2.28524930162226    9.84716717035338
H         1.61477694277421    0.59432900495072   11.37849623812767
H         0.07811370699345    0.54167521539529   13.29683897832263
H        -1.03849169565822    1.64267433340806   12.47961721838893
H         0.58642940701402    2.17909961759321   12.89678101185536
H         1.69597705341782   -1.47003665867309   10.53210374084204
H         0.21183515916550   -2.41450228235184   10.33447362284860
H         0.68968353390443   -1.85355051074079   11.95998101758468
H        -1.89179743721936   -1.36832650841417   10.36641431236237
H        -1.62560937322984   -0.84078197025239   12.04687862228591
H        -2.05736761760993    0.34716695838654   10.78350711685038
H        -1.22866815990683    1.71308635334347    5.39117639547714
H        -1.89343154881370    1.81997694393802    7.04629454127652
H        -1.61601789062697    0.22814729183936    6.30056394752908
H         0.69010266786719   -0.57382889992043    6.02291208126600
H         2.03281451161467    0.45825510250402    6.56645542386937
H         1.10222557734447    0.90004410488896    5.10594029924269
H         0.45635675674251    2.15509581796530    7.06756607282827

