55
CSD_code = FODWUS | q = 0 | S = 0 | Stoichiometry = C17H26N8NiOS2 | MND = 6
Ni        7.93349135467142    3.37979263626056    5.71883163971674
C         8.06725255231977    0.30032446960376    5.52202476489144
H         8.21827581392629    0.21758814998599    4.43802895134855
H         8.32151821672646   -0.65866568561520    6.00366873623259
C         5.85171482318942   -1.70663350638965    6.35660213019558
H         6.24446760171247   -2.20387503758716    5.46964661664668
H         4.89600269578600   -2.15642884236991    6.60955534086087
H         6.54314578758945   -1.88209309773006    7.18191923368607
C         4.13422291378058    3.06701597855603    5.68794058483302
H         4.81052120740167    3.88736330254073    5.45364803193987
H         3.60243726397899    3.28111766670155    6.61312631120426
H         3.40221960618451    2.96758366427864    4.88823450288769
C         5.66235740154075   -0.25361173155959    6.10946022164204
C         4.52215853122565    0.52005931228740    6.14481952105488
H         3.52912458498411    0.19233323734949    6.37514824496460
C         4.93350700542808    1.82395997514914    5.81378639337875
N         6.23407486639530    1.83110449303526    5.59449818620337
N         6.67554501647506    0.58280604635532    5.78069495409378
C         9.15702211157416    1.39718630443319    7.42718784408242
H         9.22834673128119    0.37929050805804    7.84255855595745
H        10.09984480347135    1.93380678256601    7.58875518006729
C         7.97441233419540    0.64907258594176   10.16294798093807
H         7.73993554326288   -0.27874272817021    9.64002030346840
H         7.42167767917441    0.66274405984187   11.09788128174169
H         9.04034243576951    0.65652687699772   10.39055740997512
C         5.96857410292740    4.96180791413066    8.33744102543828
H         6.05319764766540    5.30948223476356    7.31176535631849
H         6.36164751011069    5.73202683466606    9.00031207351470
H         4.92294707757288    4.79936612857344    8.58965668669123
C         7.59287578564447    1.83301221667404    9.35037602326931
S         8.37173308703231    4.03947011960702    1.32858184995782
O        10.19719026606815    3.94940454876694    6.26530914712093
C         8.25656073221760    3.67606639277274    2.86023243736928
N         8.27287399695518    3.26191138981880    3.96602824130178
N         8.10647819105762    2.09556156669454    8.12810119255177
C        11.38240326070942    7.27029135996228    5.63588598193220
H        10.62776106460866    7.93501435391945    5.20573727514300
H        12.34335758145084    7.47450227656960    5.15986767902737
H        11.46016768602246    7.47080789895552    6.70267229030996
C        10.95483119179270    5.48046854541027    4.03198357005170
H        10.28426545912308    6.13200748002864    3.46980065211565
H        10.57202737904899    4.46328434288515    3.98990948951775
H        11.95028426464023    5.52225687192613    3.58618377040795
C        10.58459546272556    5.10654795528936    6.38735443476232
H        10.64418756071935    5.57963923866352    7.38447977411248
N        11.01009096868354    5.89824253154645    5.41288465278247
N         7.59875648373924    3.23216571194179    7.61983120533764
C         6.74046976565370    3.70625681269981    8.51014251617652
C         6.70653346813461    2.84996877642112    9.62318615938421
H         6.10878997998800    2.96658105107384   10.50372145799750
N         7.46440174317775    5.16709393130468    5.56470138616528
S         7.97668599195938    7.72071801735007    4.66329909170360
C         7.73703054052244    6.22695407094424    5.12486489293739
N         8.87508015680050    1.39623788003073    6.01009812501223
H         9.71588271132019    1.52802612593893    5.45974863932063

