125
CSD_code = FODXAX | q = 0 | S = 0 | Stoichiometry = C54H66N2O2Ti | MND = 5
Ti        2.46392929890513    0.11660770406711    9.91935094024362
O         2.07391086644108    1.81521460212528    9.63490244445873
O         4.13905481482066   -0.20038199974309   10.24373931074892
N         1.54568208647378   -0.69129792857973   11.35613811018740
N         2.36704507633547   -0.78574723377208    8.19966422000426
C         2.65614882179942    2.99431769523150    9.43356678033150
C         3.37740873348436    3.26431220067159    8.24538256939301
C         3.99011595248312    4.49552086944678    8.08660794695892
C         3.89978046987336    5.47724444189443    9.05692481116042
C         3.14902768460746    5.24038204082561   10.19156533074022
C         2.52250391179968    4.02161497053558   10.39275088552290
C         3.38000414223958    2.23588798166996    7.13692355995604
C         2.14092054307037    2.46676687029504    6.26297809527053
C         4.63072197198499    2.23987556270388    6.25943811173892
C         1.65115482709787    3.79686964231045   11.60693560435983
C         0.37066486963090    4.63157658078902   11.50570970891658
C         2.38577809778780    4.10790710787988   12.91229044827839
C         5.38651812540001   -0.63540602991995   10.32709782451591
C         5.66689053708394   -1.98343662615322   10.63885479461757
C         6.98638407367262   -2.40941198108092   10.66332597388142
C         8.02731128335745   -1.53753501467133   10.41284248303737
C         7.75692019689080   -0.20584129359392   10.14797162969934
C         6.45657159020753    0.26069220544727   10.09488024093947
C         4.54861694057480   -2.93380305187424   11.01218327284622
C         4.48811868240560   -4.16287006921465   10.10024674002573
C         4.73584292856830   -3.39008860435463   12.46395449269215
C         6.11794283543681    1.71056292602765    9.83478443568390
C         5.83161034634036    2.41884387001356   11.16391951025722
C         7.19528741100448    2.47206560560097    9.06721166177655
C         1.58103179946937   -0.36095736437511   12.77917057247222
C         0.41361757800474    0.44801212315285   13.37418795227723
C         1.67749536824407   -1.67995397980818   13.58028945305302
C         2.88669370140425    0.42204722066464   13.00029516573304
C         0.53463472755669   -0.81743758672175   10.45196981132960
C         0.33029945884095   -2.19257554863720    9.80965528182517
C        -0.87149550079625   -2.97654165141045   10.28420791905588
C        -1.26555733203041   -2.99012727848098   11.61526126950219
C        -2.37041260092089   -3.71516422231795   12.02491079037767
C        -3.10010748674381   -4.44923177431065   11.10609235928711
C        -2.71283330930540   -4.45394120360865    9.77672545607427
C        -1.61113747241712   -3.72209021795912    9.37118019891810
C        -0.72718607759648    0.06062305628345   10.51965943751198
C        -1.28280895452742    0.46225182021097    9.18189693172176
C        -2.14319962533996   -0.36992734443895    8.47281616161132
C        -2.64541303068029    0.01612612680524    7.24251603611317
C        -2.31591129822522    1.25065058205389    6.70923761774037
C        -1.48298585431083    2.10034083964946    7.41780557941019
C        -0.96819743008324    1.70721100323610    8.64154437438649
C         3.35863803997924   -1.58785624025230    7.72702330760171
C         3.36560928863913   -2.13795647974859    6.47364696632552
C         2.30957791823741   -1.90169475753863    5.57099415995543
C         1.29908675276551   -1.04878202791546    6.05324562437679
C         1.35989715738870   -0.53490771624842    7.32068763353400
C         2.27199998015004   -2.48035525068493    4.23988583163734
C         1.05348047501491   -2.74992408960093    3.60547269104938
C         1.01894112021827   -3.29623355069179    2.33904694394544
C         2.19641927966301   -3.58525592665499    1.66704025159360
C         3.41152488190568   -3.32211223959055    2.27991534234517
C         3.45154938208559   -2.77997012199510    3.54806635795124
H         4.54385879028337    4.69978269855612    7.18306980790209
H         4.39171897691510    6.42830518653397    8.91643626347901
H         3.04406536951373    6.01958629461930   10.93206587530549
H         3.30364973700144    1.24516073600440    7.60900709321425
H         2.19347273356348    3.45244303549276    5.80269304058634
H         1.23565957398453    2.41426204494212    6.86300513135419
H         2.08139441622235    1.71703541547133    5.47623836608147
H         4.61055387163786    1.37228221295660    5.60162181508854
H         5.53312056510349    2.19321311701445    6.86144033591627
H         4.67096639592561    3.12979585564133    5.63522132599529
H         1.36747344443425    2.73483722158109   11.60327524104235
H        -0.27978929881951    4.43532373344253   12.35674345196994
H        -0.17295596366724    4.39395909544542   10.59332351385777
H         0.60817924440615    5.69297331450418   11.49165838478654
H         1.79183478620909    3.78536440984384   13.76576633890593
H         2.56126468480198    5.17658988664452   13.00903711422196
H         3.34785429141225    3.60115461912897   12.94558377619547
H         7.20604379283397   -3.44245527314564   10.89017459699399
H         9.04813837689053   -1.88869909650947   10.43773871057116
H         8.57786094462468    0.47323027855860    9.97897640293602
H         3.59420163716077   -2.38364293592518   10.92832765140853
H         3.66149103907050   -4.80540115172386   10.39902141018257
H         5.40800146174536   -4.73908276705797   10.17073613731274
H         4.34055851294758   -3.88127096474498    9.06039724414374
H         5.66123859925407   -3.95214008091474   12.56825071628138
H         3.91424971212782   -4.03449746081979   12.77184655586841
H         4.78386475479004   -2.53494882602585   13.13466314430585
H         5.18905188713671    1.72714817874639    9.24716981579741
H         5.02610562881121    1.90961446660024   11.69059097077096
H         5.53327205012742    3.44967881468754   10.98152734632251
H         6.71928694407482    2.41278218086646   11.79474564253590
H         7.50979911828786    1.92239562562405    8.18213239884503
H         8.06733608272092    2.64837489686841    9.69333239858002
H         6.80364574517851    3.43976676504769    8.75902258336557
H         0.56758129140129    0.53050872903814   14.44927501062636
H        -0.53856513969822   -0.04941509482041   13.21057297985646
H         0.36597909085958    1.45472835855614   12.96668880640044
H         2.10372603432957   -1.48952097557945   14.56308109363719
H         2.30863549602477   -2.38601849785413   13.05130858384256
H         0.69904050136784   -2.13074191195069   13.72170500455706
H         2.91426435413453    1.27862316795714   12.31980239387583
H         3.74142639849787   -0.22174405374179   12.78845908222991
H         2.95805274443986    0.77672000631137   14.02759415667581
H         1.23494158617390   -2.78453995973448   10.01181846837182
H         0.22916246255101   -2.09668164342337    8.71979975227483
H        -0.69578175094101   -2.42437921552817   12.33380791820561
H        -2.66340319430714   -3.70714211404126   13.06516480384726
H        -3.96422724703712   -5.01399828285164   11.42310699192765
H        -3.27311246784403   -5.02749144771881    9.05245446339937
H        -1.31697964014476   -3.73010661072646    8.33014974288545
H        -0.47730075985484    0.97642499866734   11.05887002678099
H        -1.51542525660075   -0.47324847369732   11.06652480886807
H        -2.42989753346935   -1.32266937453891    8.89251906177085
H        -3.30797401612342   -0.64560941002391    6.70338551599262
H        -2.71486328207344    1.55513696461817    5.75294060682713
H        -1.23953884621575    3.07445765621834    7.01786011937028
H        -0.31176614432225    2.37220739337014    9.18808809528488
H         4.18807862031596   -1.77044265629249    8.40005100296866
H         4.18579972087905   -2.78052001242862    6.19204928816628
H         0.46642334631499   -0.77489081580144    5.42358666766148
H         0.58433177978523    0.13010461076661    7.67909081433715
H         0.12708032224189   -2.55320093234697    4.12475743500735
H         0.06726312835221   -3.50393952919112    1.87106970732628
H         2.16735744434011   -4.01094134247515    0.67520315421188
H         4.33450008238879   -3.53783898637972    1.76088253606459
H         4.40700491122265   -2.55786131586824    3.99980188764616

