95
CSD_code = FODXON | q = 0 | S = 0 | Stoichiometry = C42H40N4O4P2RuS2 | MND = 6
Ru        4.36240884835228    5.33188816192196    7.96956585390622
S         1.92417486855043    3.46994366420985    8.21973746198979
P         2.56374904160178    5.81931788359169    9.34215904107963
O         3.38864268431720    3.38167937015738    7.95272626653141
O         1.33907106429785    2.18697194112767    8.47845999770911
N         1.58183537530808    4.51042264121310    9.37765119438943
N         3.48850836375279    6.02688358379136    6.44685913003778
C         1.26323132214192    4.07942053463897    6.66360948473568
C         0.24212756142098    5.00673047293860    6.62764209201274
H        -0.19056032238411    5.35356670699581    7.55285848345388
C        -0.20394881640718    5.47860905318034    5.40502705783183
H        -1.00265083625388    6.20609872488587    5.37194121194957
C         0.36394816435728    5.02619789563734    4.21851413071987
C         1.38653991857601    4.08488645574610    4.27761528921729
H         1.83892125441977    3.72601903505428    3.36419704090472
C         1.83350257649104    3.60806765749092    5.49637442950167
H         2.62924123357944    2.88307721183101    5.55964086629150
C        -0.13570437540827    5.52523350612341    2.89593636208072
H        -0.95973222291593    4.89858409219477    2.55435908483782
H         0.64706802164917    5.48560082996796    2.14201706382632
H        -0.50501442763500    6.54511836525743    2.97535503131164
C         2.97541397905359    6.12305253476610   11.08568569719192
C         2.90957870968943    5.08092080740529   12.00173710419905
H         2.50087872177961    4.13512719713513   11.67302605475068
C         3.34302037210577    5.27362471597688   13.30164936131674
H         3.28426243910154    4.46553382889999   14.01785896083706
C         3.85052960399093    6.50370916553931   13.68809204226331
H         4.19006631852338    6.65365784662531   14.70337556060220
C         3.91675445012581    7.54586818013647   12.77555152570480
H         4.30719236159011    8.50627456385268   13.08151015513650
C         3.48434949130320    7.35672462626556   11.47625439108475
H         3.53320154077472    8.16068611581811   10.75434762146053
C         1.51773429895326    7.26245452153579    8.96103847930512
C         0.18421391257535    7.26910278157196    9.35106449104614
H        -0.20000833715128    6.41145761809365    9.88625646694037
C        -0.61676346996182    8.35502275796067    9.04918488002548
H        -1.65465792767183    8.36443120115299    9.35029117415885
C        -0.08548916976527    9.43603605393952    8.36197850285091
H        -0.71236333060683   10.28401664843052    8.12557678936501
C         1.24708596327078    9.43439199948652    7.98176784793232
H         1.65806233224962   10.28319529607761    7.45345996686261
C         2.05238849257973    8.34812634292196    8.27949805534632
H         3.09780605351111    8.33059921760828    7.99391218569489
C         3.17810590704132    6.65753828624742    5.53274872074487
C         2.78278257483049    7.44680302446349    4.40268938854113
H         2.82196266041111    6.83920539292957    3.49894620354868
H         3.46812105167376    8.28851122659608    4.30024978561073
H         1.76935258609302    7.82019761809330    4.54877418388013
S         6.80046263997356    7.19338896339046    7.71909038866513
P         6.16070101666368    4.84383666488764    6.59689344130110
O         5.33602822243565    7.28188012349151    7.98615879319925
O         7.38569625487875    8.47625926332511    7.46016184414731
N         7.14268461115765    6.15268571345334    6.56132282741349
N         5.23614571182497    4.63593245439735    9.49191691873596
C         7.46136942440680    6.58402409617081    9.27527480051296
C         8.48252920624070    5.65677777106219    9.31132859820502
H         8.91536960878387    5.31002773537767    8.38615029237889
C         8.92853762924608    5.18494139509120   10.53398570812758
H         9.72735241854352    4.45757705159817   10.56714719470940
C         8.36042967462219    5.63723525809147   11.72044345332051
C         7.33775860287607    6.57845379495119   11.66125186018806
H         6.88519693312120    6.93720432076570   12.57462525486681
C         6.89094106490011    7.05531319831160   10.44245809051407
H         6.09509289597781    7.78017656190317   10.37911709210279
C         8.85992481292504    5.13818515725344   13.04307342587330
H         9.68365884625036    5.76505783399518   13.38495002331028
H         8.07693774335968    5.17745552674980   13.79678722900155
H         9.22959114908582    4.11843241192087   12.96361241762106
C         5.74906479989030    4.54001238480928    4.85337727773160
C         5.81491852912457    5.58208778259221    3.93725861205192
H         6.22369134754032    6.52787770914160    4.26589394542983
C         5.38138426822879    5.38934142398144    2.63738329623630
H         5.44013179320939    6.19739001279168    1.92112729308295
C         4.87378495069466    4.15926479581680    2.25103775040673
H         4.53420551987683    4.00927155003498    1.23577481416841
C         4.80754973831275    3.11715947428463    3.16363987721557
H         4.41705656671006    2.15675353399853    2.85775021514695
C         5.24003809087217    3.30634846180370    4.46290231807801
H         5.19116426141742    2.50243747718654    5.18486422645759
C         7.20670800815184    3.40067982228958    6.97800583291097
C         8.54023910669965    3.39393400156356    6.58799579487865
H         8.92454759053804    4.25156245407590    6.05283970031813
C         9.34112758963344    2.30793203739805    6.88983990598266
H        10.37901821751330    2.29843073308202    6.58871701882152
C         8.80976216105237    1.22693386010354    7.57699681309702
H         9.43655264026614    0.37887138621930    7.81333210519938
C         7.47718755138303    1.22868200738047    7.95720989612977
H         7.06613856426106    0.37988888749920    8.48547700438530
C         6.67197603037491    2.31502419880439    7.65951172039482
H         5.62656451464616    2.33263911636040    7.94511948923572
C         5.54642581998453    4.00517871196900   10.40596622003705
C         5.94168417011936    3.21652701550951   11.53647136466744
H         5.89989697839742    3.82371179355662   12.44038111953180
H         5.25786033338240    2.37342119425072   11.63751584329996
H         6.95607150656316    2.84520551983898   11.39178872018902

