56
CSD_code = FOFDOT | q = 1 | S = 0 | Stoichiometry = C26H22F6MoP(1+) | MND = 12
Mo        3.60930157808007    0.23693505372804    4.52523828331585
P         4.60923725651140    2.36022143857180    3.77475350537306
F         7.43182047092749    1.58260064424264    1.04939937541403
F         5.42826413934999    1.65333057737617    0.28205569072382
F         6.21238650938823    3.31346638459787    1.40777047404339
F         4.76814334832506   -2.21216803213925    2.54129046648137
F         5.92433858977426   -1.22997443438433    1.01522626192709
F         6.64991864202171   -1.26905282830792    3.03391815216705
C         5.67978563630588    3.33017452980962    4.86090627959214
C         5.11063749779556    3.83705472638103    6.03115384755308
C         5.86602423092936    4.61316177931823    6.88954467685462
C         7.19180350966300    4.88642778491428    6.58632046706252
C         7.75628873366588    4.39047628123233    5.42280641258704
C         7.00669970351465    3.61431523215280    4.55428697764116
C         3.71340980259320    3.61525746899696    2.81011257654860
C         3.22993735686498    3.34172044001847    1.52970891078623
C         2.55181928415937    4.31691424349404    0.82264546093371
C         2.33259078685095    5.56464567163870    1.38444468143906
C         2.80263678501952    5.83759973280188    2.65771684991777
C         3.49117979884771    4.87197026462711    3.37035484707590
C         5.69922252445164    1.36634280025599    2.64796426577526
C         4.77943454674287    0.13597691890815    2.58997772996420
C         5.53492196153052   -1.13085432993313    2.29073385129138
C         6.18625983641655    1.96876615928547    1.33214192352134
C         1.95654097775208    0.82408447621572    3.15629767448635
C         1.57243414994180    1.29320567253821    4.46013569144095
C         1.35314047240022    0.16940678356585    5.26270984724442
C         1.56948804857845   -1.00085924005481    4.47728134948096
C         1.91653997273481   -0.61047865655924    3.18437044981642
C         3.73815562617322   -0.24786407387492    6.87325528511612
C         3.89473684505823   -1.47081000730152    6.16100122361624
C         5.03323188071369   -1.37776348962228    5.35880161071530
C         5.57550463165703   -0.05633644890492    5.51451488314679
C         4.76740313869248    0.61443484512390    6.50169107005365
H         4.07301882252157    3.61930020843399    6.25539009652187
H         5.42357758842733    5.00638760836671    7.79203047805084
H         7.78224696641843    5.49151642780955    7.25614179893996
H         8.78476247093959    4.61163940047071    5.18370467885310
H         7.45735139523905    3.25180154897880    3.64283935433272
H         3.40328158072863    2.38545146002731    1.05919752481184
H         2.20057893396345    4.10096052660690   -0.17455197007313
H         1.80403410199346    6.32217477132872    0.82755842113873
H         2.64221980859198    6.80927392934004    3.09887611252623
H         3.86780015107295    5.10693629369456    4.35404141938106
H         6.60665802112146    1.12515608281135    3.21933232713859
H         4.11256539510225    0.24326684269466    1.72639157775503
H         1.84148200769999    1.41412567653070    2.25407280147285
H         1.32528197191799    2.31444139904093    4.70810188893760
H         0.93556818390437    0.17658121311888    6.26024074242463
H         1.34955889975082   -2.01180300214763    4.78916044391457
H         2.00045343932309   -1.26542026606174    2.32977911888632
H         3.02939675207020   -0.07533000831518    7.67108598057412
H         3.33274811032020   -2.37466319130624    6.34795037899564
H         5.51285471594576   -2.21064936880266    4.87273159577862
H         6.61562892021651    0.19399113054101    5.32377266003984
H         5.02579348928151    1.54043294819864    6.99172151650627

