86
CSD_code = FOFFIQ | q = 0 | S = 0 | Stoichiometry = C35H41NNiO5P2Si | MND = 4
Ni       -1.10804084360992    2.76555267865513    4.42230092802158
P        -3.26232796515805    2.13581154088836    4.21949105632087
P        -1.03289732689903    0.51555762505993    4.55987751899030
Si       -3.92007177285588   -4.07396832855017    4.35963724050438
O        -3.05603943744705   -3.56280609650309    5.64059638563355
O        -2.87994321687773   -4.63636412350276    3.24909215320251
O        -4.85880660557635   -5.37107964347473    4.69280671680845
C        -0.64967742393246    3.35317453633312    6.04836866154315
O        -0.29312441677286    3.54620102589021    7.12011646532559
C        -0.70650361905985    3.42016787516228    2.80676111850871
O        -0.68736100404799    3.84547154491225    1.74304312390637
C        -3.58234591298155   -0.63567010890027    4.67425782653298
H        -4.42069876580276   -0.32542586955833    5.30993892786899
H        -2.99998084320719   -1.37009102316104    5.23376325546121
C        -4.14182199579315   -1.31290033159366    3.42563663711479
H        -3.32183411688261   -1.58910366138950    2.76181390360028
H        -4.78571783882064   -0.60867039118703    2.89129382235656
C        -4.94266416886514   -2.55745162031144    3.81348257786554
H        -5.54881770967978   -2.85714977697220    2.95603858470034
H        -5.64826272196528   -2.27389877234062    4.59725593379730
N        -2.73832054289671    0.51580714611215    4.40417612806482
C        -4.63997692739776    2.23968295778517    5.40897671181370
C        -4.36515897714784    2.82778542537428    6.63824395963222
H        -3.38343219434052    3.25604865609774    6.80331976511020
C        -5.33244453900997    2.87343068080463    7.62575696783306
H        -5.11428115367835    3.33652902474371    8.57691235406286
C        -6.58270586210668    2.32594882669099    7.38903651850986
H        -7.34219466749924    2.36063932609454    8.15638849313997
C        -6.86274926287632    1.73658207798428    6.16613444766424
H        -7.83877287428356    1.31000028307318    5.98375596360725
C        -5.89742608525555    1.69058152378488    5.17618040822897
H        -6.12140881951553    1.23901218331942    4.21984085611218
C        -4.11400765990424    2.16201589239624    2.61006228851202
C        -3.57486531320657    1.43517006535236    1.55332678709413
H        -2.71914301903844    0.79675085833356    1.73405207173967
C        -4.12559921483371    1.53079835898708    0.28992005748070
H        -3.70974333108326    0.95554826240773   -0.52475407784303
C        -5.20303244750814    2.37383068208600    0.06613223067477
H        -5.63207270936900    2.45186529221537   -0.92212698043974
C        -5.71873783368891    3.13009303183931    1.10597028689087
H        -6.54547817766743    3.80240977951600    0.92715607703617
C        -5.17220663438063    3.03304120283216    2.37309053962338
H        -5.56222222855453    3.63397260116650    3.18384082904331
C        -0.73995083187603   -0.42221761018624    6.09139228382459
C        -1.57459803850399   -0.21355973369475    7.18508662523500
H        -2.41963658208304    0.45670749775421    7.08909799325792
C        -1.32536555201707   -0.85382823951499    8.38361508564543
H        -1.98435486336578   -0.69760544889009    9.22569180260138
C        -0.22608731381754   -1.68898224594998    8.50776830690100
H        -0.03035408491189   -2.18990143771873    9.44468416166155
C         0.63091976670247   -1.86866703174044    7.43450329268923
H         1.49919682265016   -2.50356813973729    7.53743298469126
C         0.37993094600258   -1.23427594549701    6.23108465914878
H         1.05275352964090   -1.36561178106397    5.39441678108706
C        -0.49727468427628   -0.66764667074325    3.27705842600646
C         0.11694626756750   -0.13987631570435    2.14658422222870
H         0.28406135479884    0.92978178473875    2.09354319512432
C         0.51402424320201   -0.96842903425573    1.11245208208097
H         0.98939876123174   -0.55129435644235    0.23654868549545
C         0.30663546653825   -2.33471057236199    1.20884267695377
H         0.62306307546438   -2.98654231329785    0.40698908597992
C        -0.30450866048602   -2.86579048807355    2.33433907013167
H        -0.47127674649426   -3.92871052737614    2.41679696137039
C        -0.71332364721422   -2.03889950574395    3.36458278031318
H        -1.20399210536130   -2.46465190719500    4.22553219939818
C        -2.37376929319327   -4.33540496908945    6.60440583412967
H        -2.20105308045969   -3.66983436657449    7.45736245725874
H        -3.01579452766725   -5.16467123033612    6.92171816807206
C        -1.05476273402133   -4.87884748356490    6.07902921356966
H        -0.58807288819603   -5.50522871454254    6.83454699749489
H        -0.38260972784837   -4.06124519523307    5.83261346634827
H        -1.23925670553626   -5.46473332742902    5.18324681833761
C        -3.14205909104410   -5.27689406148406    2.02200649204052
H        -3.99335473120968   -5.95407446583788    2.13767075969812
H        -2.25084779719074   -5.86996823023320    1.78955101047322
C        -3.40863292040155   -4.27801978396382    0.90529838286301
H        -3.52729359420024   -4.80359199093236   -0.03842531494850
H        -2.57852389488860   -3.58079901696388    0.82408381426010
H        -4.31286311445927   -3.71441876558523    1.11512923663072
C        -5.92486608020869   -5.50728389130048    5.60027603555669
H        -5.78766138708850   -4.82681990474689    6.44789551426026
H        -5.88785852415146   -6.53848414244509    5.96872369486770
C        -7.26578321441069   -5.24275504210733    4.92933294242832
H        -8.07328310595914   -5.41556073348795    5.63553829273642
H        -7.39014626328941   -5.90666192998670    4.07794422607645
H        -7.31119626796286   -4.21572394990800    4.57824307355503

