55
CSD_code = FOFLUH | q = 0 | S = 0 | Stoichiometry = C26H26BrNRu | MND = 10
Ru        4.36186954933232    4.71781068542835    6.04914260592621
Br        3.56077247185955    5.05338709524863    3.67968261607153
C         5.25834678849223    2.62434875642261    4.54848626737792
C         6.16114407606629    3.64038041474923    5.22401631144547
C         5.99755463616851    3.43896356296497    6.61738085464483
C         4.77476501168428    2.74512820126614    6.84507237316319
C         4.18225496067994    2.47053059209854    5.58973660764643
N         5.23838542517128    1.94180111425217    3.50049707444747
C         6.10923076728544    1.85137761808905    2.36062421978412
C         5.47322250726085    0.76916027373587    1.47606456123617
C         6.16602581640722    3.16987847065994    1.58205500609784
C         7.51961941466973    1.40856623978937    2.77062957264468
C         7.37154971995439    4.30249536292573    4.70710360281579
C         8.62710270313778    3.85229408785917    5.11847562859250
C         9.77613096071630    4.47869412007738    4.67332904226880
C         9.69091309191595    5.56959563356561    3.82397487985369
C         8.44899054964489    6.03296550744153    3.42358421702320
C         7.29552898155153    5.40669436289402    3.86006863213818
C         2.93177507935947    1.75334269806335    5.35934774564312
C         2.22188654999764    1.17604594774434    6.41754242159800
C         1.03306347604654    0.51219105995342    6.18945148318831
C         0.52224142475244    0.41460579257726    4.90523416797342
C         1.21213534237781    0.98783377731727    3.84975160191271
C         2.40276995858914    1.65211329432892    4.06916482056437
C         3.99347285353044    6.92587328916738    6.28587306258946
C         4.95488915690346    6.54950471553955    7.23865565368162
C         4.35738380011174    5.58179547397138    8.09397283318760
C         2.99498630543808    5.42143644924539    7.71483386081250
C         2.76811084098266    6.22279836578298    6.58635711045079
H         6.72804033667573    3.69820466396742    7.37696155090550
H         4.42829636900453    2.40984146553841    7.81504027140248
H         6.09205765825013    0.57525773480636    0.60414774649263
H         4.49076110920658    1.09532228270618    1.14726116544566
H         5.35711103557313   -0.15148312917093    2.04186742628509
H         6.77580921827433    3.90216472635561    2.10132455015319
H         5.16516895805201    3.57714874500180    1.46246503848916
H         6.59625004393282    2.99331340349262    0.59958612973583
H         8.12246163069288    1.24170830186460    1.88157564877586
H         7.46877053162410    0.48145692505370    3.33841989356676
H         8.00477993879986    2.16660369702755    3.37900885075579
H         8.69641811025354    2.99802634481856    5.77833248190667
H        10.74138161686372    4.11407658874115    4.99331004585889
H        10.59011896653077    6.05855593484783    3.48015747461367
H         8.37461329579686    6.88756611508393    2.76789052359318
H         6.32865357391950    5.78084452281742    3.55510498096756
H         2.60349974273569    1.23412830529303    7.42665734562184
H         0.50087641164031    0.06871520867156    7.01899768848762
H        -0.40984463914196   -0.10282110406483    4.73194235548347
H         0.81592267395601    0.92298721193537    2.84747271852894
H         2.93022149295805    2.10784116010591    3.24850794312507
H         4.09116018785671    7.71002856000660    5.54483830800014
H         5.94720478507698    6.96398000595079    7.34376411070384
H         4.80630319227263    5.18160558666348    8.99306231436304
H         2.25494750502753    4.83602361961806    8.24070818801860
H         1.81699403408150    6.39999015970780    6.09968641394460

