67
CSD_code = FOFLEU | q = 1 | S = 0 | Stoichiometry = C24H29BN9O3Zn(1+) | MND = 6
Zn        3.96353606348393    8.67657277379120    8.85789713573141
B         6.28070751984951    6.48256200704090    8.73530387083331
O         5.36318709156019    6.16281968663370    9.88619632283917
O         5.50774368805414    6.45098716960992    7.43962142090950
O         6.90910620279813    7.83237230013943    8.92862431237315
N         4.43544711549891    7.08778825959044   10.17076735525985
N         2.88009934063999    9.11676277050160   10.60338915171074
N         2.04082080354772    8.37807888295101   12.50117097900541
N         4.40174372475902    7.20912717333432    7.40045704085168
N         2.22496956968480    8.59310843539181    7.68258257845276
N         1.31155494232817    7.99558490075828    5.76944957883890
N         6.07448383216921    8.87889928542909    8.84536660364955
N         4.27830574780858   10.70514780531858    8.43184414678234
N         5.65878710212670   12.41991371293871    8.49841796087410
C         4.04714645421719    5.92332164744714   12.29152867808381
H         4.92204896707310    5.36113528770013   11.96986725652679
H         3.20052866194130    5.24003646896909   12.33451702510591
H         4.22769653146537    6.32592323206138   13.28448308364734
C         3.80913999760047    7.01067229871034   11.29412935059836
C         2.90449654262661    8.12248911669712   11.48912228026262
C         1.98972942319097   10.02654369247550   11.05772452252038
H         1.79561504603189   10.93719633464121   10.52958786397748
C         1.46090462967875    9.58270781908234   12.23511647696919
H         0.73407668130302   10.01921358145492   12.88860152394447
C         1.73655444696415    7.57922626499032   13.65828103554241
H         2.56438871161927    7.59011678914670   14.36889593018476
H         1.52692613895060    6.55015187912058   13.37171529534360
H         0.85670288381964    7.99316897128778   14.14742050811202
C         3.75675142587918    6.00692124934890    5.36582559281423
H         4.59872793509077    5.37811226243161    5.65028986977345
H         3.99949853100166    6.48815229712538    4.41968769426519
H         2.87485011807882    5.38645473866899    5.23194401115325
C         3.55644090540677    7.01900567494677    6.44700946926331
C         2.38107217247064    7.85046620988380    6.58814311175846
C         1.03337217484326    9.22036842596329    7.56553650723544
H         0.66162768329767    9.87049611130240    8.33044919313156
C         0.45409233327164    8.85915145183657    6.38361943568841
H        -0.47885924213474    9.14265574454731    5.94190608575783
C         1.06563282664032    7.39824025292629    4.48399306647187
H         1.93759505691358    7.49855931071208    3.84019563370764
H         0.22420991685159    7.90687907760492    4.01701910114966
H         0.81697730706122    6.34073363343745    4.58581043149627
C         8.04237990640236   10.33729324592141    8.73602235468714
H         8.56024575195577    9.38468325916290    8.64523209733866
H         8.35743872609927   10.80529356915882    9.66741158119147
H         8.32388140262811   10.97735100249693    7.90421140705394
C         6.57322934815960   10.06225619280013    8.74371991219756
C         5.55009941036411   11.07183231392565    8.57838093952116
C         3.56094594693761   11.83609399713795    8.24990350952835
H         2.50281623799549   11.81219742668673    8.08967425515748
C         4.40387594611068   12.90886630712619    8.28784153035817
H         4.21341494865288   13.95717469230273    8.18451251124813
C         6.83150253322307   13.24532919198005    8.61342186986546
H         7.41947814822103   12.95979380730970    9.48376889693985
H         6.51967049966220   14.28215156291570    8.72583742375753
H         7.45362364843963   13.16662844362620    7.72043468881672
C         7.40510689255938    5.34722813902730    8.66822170841146
C         7.04417178376697    4.00693500084786    8.78320711442348
H         6.00313481555564    3.75918171143923    8.92956632174411
C         7.98944000879692    2.99907654499136    8.71802128505136
H         7.68544972797343    1.96621172694046    8.81026956079489
C         9.32514132510395    3.31287064540529    8.53437482133070
H        10.06608226051151    2.52855506417558    8.48324956585617
C         9.70424814623025    4.63867019901128    8.41674998350710
H        10.74495379319283    4.89141276255718    8.27291430798064
C         8.75236273562967    5.64094484460414    8.48220347950950
H         9.05346905037035    6.67344336050306    8.39044038113055

