32
CSD_code = FOFMIX | q = 0 | S = 0 | Stoichiometry = C13H16MoS2 | MND = 12
Mo        2.37166635735353    2.03744217869953    7.98684703533469
S         2.86005748779019    4.19491788408203    9.07050610424207
S         3.59491854615611    2.70522072682916    5.95720760533679
C         0.69947547694388    1.90884153238619    6.34872496811475
H         0.86386995405735    1.78073007626915    5.28886331911692
C         0.63786964698877    3.15928724387539    7.03213758889476
H         0.61059409338707    4.13136071744807    6.55010087256970
C         0.21789375717423    2.89780018653083    8.36996721773394
H        -0.04122849607113    3.64710495541753    9.10356919093591
C         0.08033913565769    1.51549352209115    8.51204982881494
H        -0.28566201426535    1.00653587351826    9.39187734952593
C         0.37815741806118    0.90550167004763    7.26614445734391
H         0.27521792677815   -0.14572708045857    7.03884883773165
C         3.48447543156640    0.01145740277308    7.91961646345589
H         3.48563923736213   -0.71478913647240    7.12090918148977
C         4.51893848904287    0.93083934917800    8.18703329702835
H         5.41189512654419    1.06416844513426    7.58939223763498
C         4.25165369725092    1.55843086283360    9.41731818588144
H         4.91174817071067    2.24484991683166    9.93296852618881
C         3.05008122133555    1.02910603548903    9.93901701711552
H         2.67426101098833    1.20203977691174   10.93610117243071
C         2.58314372795420    0.05108638876522    9.01943433119569
H         1.82027350928817   -0.68732630372311    9.22725796018436
C         4.20334602553906    5.17861969809764    8.35069810884007
H         4.08738950591052    6.15540172151428    8.82367201959724
H         5.15420173505249    4.74453854835909    8.67200783157658
C         4.15372716114312    5.31240043388372    6.83897730882198
H         4.72870353815610    6.19758601438232    6.54742399185224
H         3.11866846673594    5.45916578675282    6.51575759549293
C         4.74049737750536    4.09896292852157    6.13901112415707
H         5.63316106987854    3.74167496742692    6.65981232526460
H         5.01032620802186    4.34517767660625    5.11054694609502

