85
CSD_code = FOFVUT | q = 1 | S = 0 | Stoichiometry = C36H40CuO4S4(1+) | MND = 4
Cu        4.56560530332515    2.91369791200929    4.33756794121736
S         3.48943217895444    3.64852468678258    6.22090439412064
S         6.80335304520593    3.76121222882623    4.38137688840164
S         3.92312919736449    2.25710005527440    2.18217752127121
S         4.44860645485029    5.71589876793347    3.53873809339505
O         4.45860913094236    0.70443004429052    5.11091428776714
O         6.31915554965295   -0.13397382414589    4.01003368849004
O         1.05105343712220    3.63273693935799    3.96728208224062
O         0.59185288262558    5.73793298912191    4.83615294472783
C         4.73243213585535    0.47944816192004    6.45710445559554
C         5.75549837396339   -0.35171657819198    6.89222837126701
H         6.39205519466002   -0.85185575080102    6.18045920377136
C         5.97837473108187   -0.52740484229243    8.24831668747583
H         6.77533241004472   -1.17802686625676    8.57153847849586
C         5.18905155200713    0.12523240527515    9.17693715648396
H         5.35892904798256   -0.01458394159010   10.23231083525855
C         4.17799207359516    0.96365509169316    8.74294819927515
H         3.55470231958470    1.47095204375743    9.46427454868776
C         3.92978383720653    1.15033154547364    7.38897267919931
C         2.85040314416608    2.07300336147551    6.94635489712744
H         2.20798656187389    2.35011580411660    7.78181939979418
H         2.25219772188079    1.64400441689222    6.14314584520079
C         4.80739380435769    4.10833848799309    7.40720898920149
H         4.81916912033280    5.19799145335305    7.37793575809611
H         4.44460329658905    3.78991544091398    8.38302563661082
C         6.20022381857450    3.54216308214240    7.15087297012643
H         6.13427279887667    2.48837096495179    6.87479841108338
H         6.73953341862689    3.58809726116588    8.10138032169174
C         7.02387701657943    4.29886936490586    6.11581936927514
H         8.08875806103635    4.20308544370284    6.32359128643270
H         6.76228740768728    5.35640792622859    6.09968853987849
C         7.84610495339668    2.23801786103004    4.29980567416633
H         8.88416026186665    2.55389048522480    4.39428207408288
H         7.57226755826822    1.57226959546942    5.11507806312225
C         7.57183867027488    1.62003755786737    2.96689209716180
C         8.06524368494136    2.20686693831345    1.80736033266699
H         8.69085094086811    3.08256051119135    1.89296760718161
C         7.75822419740981    1.68909340209286    0.56329089536947
H         8.15306199746382    2.15436137637803   -0.32655459881886
C         6.94944279061073    0.56907531470762    0.46194753234654
H         6.71226113949822    0.15564298831673   -0.50579708205892
C         6.45363535861160   -0.03201896780091    1.60391280088138
H         5.83912371835644   -0.91675773864571    1.53456633820833
C         6.75742959859081    0.49400168076121    2.85188126677788
C         4.95026817825457   -0.26606869781457    4.20562863292242
H         4.38696207674351   -0.11280651306507    3.27883434079828
H         4.75438746033030   -1.26750609302103    4.61253829403361
C         0.66922011227154    3.76083141925329    2.65058128288813
C        -0.18749110662971    4.75371114977782    2.18976966733684
H        -0.57242439057097    5.49813159047753    2.86749548440227
C        -0.53871623174632    4.80862458103881    0.85133115337477
H        -1.20365482351931    5.58777953279566    0.51319978134751
C        -0.05075430102812    3.87222015667499   -0.04131075269393
H        -0.33750965153136    3.90498851947265   -1.08013775771301
C         0.80963982858039    2.88894447225433    0.41126794235242
H         1.18351895452116    2.14465371678986   -0.27681168637938
C         1.18897156004870    2.82243543093139    1.74643993542728
C         2.12875416537981    1.76346162803194    2.19806252245406
H         2.06539288033580    0.88946411980592    1.55005819876981
H         1.94534345655414    1.48293910964071    3.23346369503735
C         4.07505860382716    3.41350394049003    0.77158480868141
H         5.13408790775787    3.35489265953436    0.51633311518398
H         3.49552699031560    2.96025177938256   -0.03092748148250
C         3.64323377766354    4.85905133234625    0.97643115388689
H         2.67347234254860    4.89394535296941    1.47362674665685
H         3.50561216453529    5.28488112645653   -0.02179938324917
C         4.64372340976666    5.73049067980559    1.72607970239395
H         4.55484535460220    6.77121640476270    1.41558383660785
H         5.66731541476559    5.39735647417725    1.55511466630813
C         2.98932638515165    6.82066252607353    3.75127124503355
H         3.27351614616779    7.80012389306830    3.36563019727387
H         2.15550874763506    6.41617637620673    3.18086952730524
C         2.67144348138778    6.87264702206713    5.20960596277959
C         3.55191939465352    7.47861839084430    6.09830455658408
H         4.44556516514351    7.94333845077517    5.70834016730097
C         3.30056684991875    7.48499851435697    7.45749345600682
H         3.99167564283622    7.96679357018095    8.13234771265766
C         2.15600314959777    6.87955217623278    7.95009879354072
H         1.95020872507135    6.88689623933673    9.00931801317421
C         1.26446907811566    6.27878486083638    7.08141035270194
H         0.35807806935765    5.82437567006905    7.45299832876586
C         1.51814957710365    6.27311535351791    5.71588324168165
C         0.32865648032865    4.37181304861972    4.91726936404000
H         0.62579645716507    3.95809391007134    5.88741010294852
H        -0.75106738019959    4.23132104360538    4.75999819609749

