74
CSD_code = FOFXUW | q = 0 | S = 0 | Stoichiometry = C35H31F4NO2Pt | MND = 4
C         5.21452888313686   14.20078002223160    9.43450352809298
N         4.54861442653479   10.13153866313814   10.80088693894267
C         2.29223428741367    4.47757137588911   12.04019715254097
H         2.35447941396967    3.50289203114718   11.56054647657095
H         1.53019548862675    4.42867451316660   12.81349037967159
H         3.24888755189485    4.68892325661082   12.51356704566975
C         6.37460907624521    9.43750033938011    9.45041275756974
C        -1.03932502002176    7.20278196870809   14.72304751665481
H        -1.76380026029396    7.39733581135291   15.51155363645521
H        -0.41310602195666    6.37299312308419   15.04282516157340
H        -1.58840154932234    6.91540072703298   13.82929858010152
C         6.23229595315442   14.57748316684897    7.24997704377051
H         6.93146283890841   15.12933353693269    6.63808239908850
C         6.51587368196839   16.49793062188476   10.38571101763174
H         6.96011006525556   17.40866728321240   10.76047669038363
C        -1.14870608814333    9.60798597414552   14.06965372008601
H        -1.68172454046540    9.34633362615729   13.15756930101882
H        -0.57742437908345   10.51410407489336   13.88617268054311
H        -1.87697381708439    9.80343400643318   14.85335831313474
C         0.59515636241679    5.27160124293253   10.36152500631428
H         0.61744645743566    4.31815143979759    9.83790043877445
H         0.34238716886370    6.05072830940946    9.64547343691985
H        -0.18938761077949    5.22860771921443   11.11199985194351
C         0.51196694243095    8.84054591498801   15.78649866432720
H         1.12358688682850    9.72574954873774   15.63474108107887
H         1.15835611795358    8.02646534292497   16.10867349419845
H        -0.20968777355923    9.04337908960775   16.57444500970924
C         3.03403199563926    5.52090288003001    9.89826746093958
H         4.02182509146449    5.69431493610416   10.31920953134401
H         2.83760483039899    6.28719331941708    9.15177639859614
H         3.03678106239807    4.55180601088038    9.40517261914367
C         5.16999568192172    9.19796175207373   10.08791952608730
H         4.68803641112867    8.23013369428776   10.03302189891433
C         4.28634752286491   12.29339377117823   11.69369908189421
C         4.38859585510754   13.23736372537200    8.82593970063917
H         3.61195902569356   12.76307914100387    9.40548177416944
C         6.33293045928512   11.65012137014465   10.33275104601038
H         6.79326317988801   12.60993114909934   10.49288738881706
C        -0.21307624291299    8.46524529135956   14.48718703544341
C         5.13652182181947   14.52759829006028   10.83334867623325
C         6.09495125812656   14.93595954907937    8.60230524800515
C         6.98853053110056   10.68289335942233    9.60516705154420
H         7.95549995427317   10.87276426129174    9.16689438500239
C         5.07502902398946   11.38488145455304   10.88635218946039
C         4.49054301425031   13.69876095710984   11.80820737354786
C         4.51662867005959   12.93019426603938    7.49582588831518
H         3.86634618955517   12.19279997746905    7.04939173547943
C         7.01674617129280    8.37842397497127    8.60618534141435
C         1.94628184035727    6.92978997660667   11.66531014748820
C         0.85702833936682    8.33864748430936   13.38960325100967
C         5.32363659708387   16.28593191867580   12.52573682287944
H         5.72718191846244   17.24538770217266   12.81328906403749
C         5.66319558595674   15.76396883803488   11.25253461408740
C         5.47526620191086   13.57315253839488    6.70784695397978
H         5.58629322189493   13.30253029064811    5.66859394757040
C         1.96427668981851    5.54819724430840   10.99324557576568
C         4.44513774836426   15.63190487978468   13.32627957786621
H         4.08976864169472   16.07025753722544   14.24613644461719
C         4.01852415478449   14.32271248404611   12.99086537710514
C         2.72854854881388   12.32289973304496   13.53936633297306
H         1.99210256957785   11.84331972676427   14.16505367570123
C         3.14175204477745   13.59783815931334   13.82250881971769
C         1.01619779038567    7.14748072293600   12.69096911070682
H         0.37520520839518    6.32609289779064   12.94921124913890
C         6.78305451774907   16.06008491933095    9.13144551274106
H         7.47172449854810   16.59207130150244    8.49123762940491
F         2.67665478147996   14.20847049403446   14.93462517226194
F         6.79380120079898    8.57732631888076    7.29166903841170
F         6.56761333973568    7.14599523243889    8.87927565380170
F         8.35072108236437    8.34366453397172    8.75347711873566
C         3.33771086624627   11.62437190482822   12.49111546409673
O         1.52138250415178    9.41292773912578   13.22478744678422
O         2.77413639308481    7.77552682794165   11.24109145702452
Pt        3.02285766443559    9.73933273305603   11.95144586823598

