75
CSD_code = FOFXUU | q = 1 | S = 0 | Stoichiometry = C32H31BClN7OPRu(1+) | MND = 6
Ru        8.52661767833875   -0.62405004764617    8.77113432584878
Cl        8.53247035618076   -2.74300951086995    9.77384563114676
P         6.54882068578430   -3.82176169801433    5.04557605764255
O        10.65839214010412   -1.24947112940573    7.03476239300590
N         9.78175771575639   -0.99606692981761    7.74374620419967
N         8.34291979596631    1.35115252974327    8.16451958182758
N         8.25943035018201    2.32946186263801    9.06835950357219
N         6.99988360793140   -0.13754517663516   10.04202519707950
N         7.00335926589959    1.01631122138828   10.72668042226841
N         9.71553962381486    0.07319082385007   10.33715127855906
N         9.43451933955485    1.22766082705494   10.95022764349926
C         8.38796875019892    1.90214963197617    6.95636559570840
C         8.32936324872064    3.28623564924764    7.08204151573474
C         8.24652451708019    3.51151286226315    8.44281080637905
C         5.92001271527367   -0.82500645992927   10.40995986478927
C         5.20751706668543   -0.09741069422030   11.35591782205487
C         5.93396938359966    1.06523220478784   11.52721805909843
C        10.80434362460567   -0.43758372839651   10.89511428723486
C        11.24844114866774    0.41398175422146   11.90370406366541
C        10.34592565375264    1.45787606500844   11.90501586065999
C         7.14151463672189   -1.28534903423895    7.48375740222771
C         6.34116947360743   -1.86219916387964    6.78927313809869
C         5.42397845942127   -2.61014902958115    5.93593005163762
C         4.40964891499665   -3.36702029008460    6.79654277604401
C         4.70606637216788   -1.73253031534479    4.90742100350340
C         6.87995050947101   -5.24385063081430    6.10107534253985
C         7.40337456745061   -4.98645388510083    7.36802174842187
C         7.70448962830610   -6.04137453266139    8.20830309728463
C         7.49546899701000   -7.34609221772058    7.78703483089294
C         6.99217133511109   -7.59931093386135    6.52029015913176
C         6.68371605977711   -6.55237371828724    5.66891872063095
C         5.78863609388613   -4.34305829189977    3.49298055734196
C         4.62216380508951   -5.10700705766393    3.51726051653758
C         4.02171865563461   -5.47807832364453    2.32874516119905
C         4.57581080724973   -5.08811728759890    1.11858608880748
C         5.73305962423678   -4.32635418636104    1.09439432362126
C         6.34230110153208   -3.94957148047945    2.27824639842519
C         8.15253898908016   -3.06723000075221    4.68730947267427
C         9.25037842004039   -3.92264255913737    4.61233792456385
C        10.50357842298764   -3.41415140285677    4.32505713741306
C        10.66775293785392   -2.05602702404888    4.10665976464318
C         9.57554188659156   -1.20556663537362    4.17364016844763
C         8.31769278098450   -1.70278882525845    4.46354254720009
B         8.16943548884782    2.00861234797389   10.57360139137024
H         8.02563805770403    2.97751506388625   11.22510651109937
H         8.45428708661634    1.29310873840192    6.07389722458592
H         8.34614534177635    4.01499892037982    6.29940382261456
H         8.17909465545088    4.42934692174666    8.98960338544780
H         5.71220553182164   -1.79337645063208    9.99179729489495
H         4.29981141827458   -0.37850007862442   11.84687074358910
H         5.75424144907716    1.90817597947842   12.16269017524620
H        11.21428106927531   -1.37434734437404   10.56469723672901
H        12.10033492864251    0.28326018644089   12.53684534581994
H        10.29753581082760    2.33402639319392   12.51830048615443
H         3.79270982870034   -2.64489590203158    7.32878052090823
H         3.75546787282589   -3.98426173853984    6.18314118415571
H         4.90821226248648   -3.99519873442816    7.53274731844555
H         4.19741395828912   -0.91877315078634    5.42123706252697
H         5.39593033729748   -1.30034531258161    4.18454285363318
H         3.96424148489242   -2.31550533985076    4.36296138782962
H         7.57735100992654   -3.96909111178151    7.69353543992030
H         8.10531066647670   -5.83139498197945    9.18747220854424
H         7.73133216954126   -8.16914120923387    8.44377726150541
H         6.84154158467095   -8.61586917621614    6.19046549971860
H         6.30335120122908   -6.75195945153392    4.67704032053976
H         4.19518632767880   -5.41615765411668    4.46126810187357
H         3.12114931553885   -6.07253723747030    2.34533932977956
H         4.10415236549127   -5.38032219748069    0.19340164411931
H         6.16287037847506   -4.02475417990177    0.15176717863303
H         7.24672656553100   -3.35747870512512    2.26416268577129
H         9.12059488120422   -4.98187127249171    4.78658238859575
H        11.35258650979816   -4.07787872452441    4.27558920499040
H        11.64654075878568   -1.65893138076734    3.88859455706079
H         9.70601484469295   -0.14824199650134    3.99809652918305
H         7.47710569084813   -1.02997445118180    4.52767925935007

