69
CSD_code = FOFYAA | q = 0 | S = 0 | Stoichiometry = C23H36N2O5P2W | MND = 6
W        13.88490208645882    6.67770469259181    1.82982848246228
P        12.07562946675032    6.14472130009285    0.17653262418981
P        10.06565376853832    5.73575007411392    0.25579049368801
C        12.70593235497435    6.58294884591825    3.43745854696010
O        12.18388750169411    6.56764270760447    4.45570663890535
C        14.32167612367876    4.74281974829903    2.08798941001029
O        14.61848643810887    3.66424761287611    2.32681778944699
C        15.15973741407975    6.79731944682362    0.29453076738117
O        15.92638832976606    6.87657316029448   -0.55006527769523
C        15.36024730381070    7.10390020479674    3.07834077983001
O        16.21283689649752    7.35095463667721    3.80187035788200
C        13.51180879136014    8.63970964994680    1.71687526417849
O        13.34992879778694    9.77179504749152    1.74257545481916
N        12.55106431497198    6.08922993385244   -1.45058487162825
C        12.79485687767856    4.77234127207266   -2.06065383167000
C        13.80151672401765    4.91643250906448   -3.21331568496500
H        13.88652883567220    3.95518613665073   -3.72264192271102
H        14.77729029240094    5.16291606761830   -2.78944920843192
C        13.41724763696883    6.00810156469176   -4.19888717843120
H        12.47963959088998    5.76546383487870   -4.70000784744129
H        14.18560725071013    6.09468610590484   -4.96963582147192
C        13.30121205689555    7.32118792203387   -3.44189520416902
H        14.27818011009728    7.56144864635956   -3.01720218087485
H        13.01860339919344    8.12852567033555   -4.11936919327429
C        12.27687853071307    7.26122566040292   -2.29738872425198
C        13.44314418422800    3.86837369570277   -1.00651174259340
H        13.75806372428121    2.93326358084232   -1.46469688163170
H        12.73880550584351    3.63450452669084   -0.20746478631434
H        14.31864993583784    4.35346175621145   -0.57742784780405
C        11.51299305604485    4.07987123634702   -2.54166223704211
H        11.12729241746041    4.51995626193142   -3.45441649739791
H        10.74412593496386    4.15318841027334   -1.77338747789642
H        11.71316357193935    3.02799548780150   -2.73215007865283
C        12.47455973865283    8.52238810548780   -1.44944048434466
H        12.41072781899274    9.40604972594143   -2.08078175278215
H        13.45380343351919    8.50957409717640   -0.97317086445917
H        11.70580569919459    8.59897446607784   -0.67976351072626
C        10.84484629880053    7.29072379459425   -2.84720731396161
H        10.69824386755707    6.57389039446288   -3.64732699099040
H        10.62093583957889    8.28148585249036   -3.23583652186880
H        10.13911704981888    7.06347153352426   -2.04902316785895
N         9.76795308036141    5.83408198195234    1.95176773302117
C         8.99064778836814    7.02070982258332    2.35608573427092
C         8.89323406751872    7.09951183432530    3.88647527874835
H         8.21338084603441    7.91313398378592    4.14551819561480
H         9.87783613282908    7.34286031470539    4.28747116180366
C         8.42578579240424    5.79705169787862    4.51555320858383
H         7.40900970623417    5.55710390421963    4.20121135949380
H         8.41635057604859    5.89707690583609    5.60252165751024
C         9.39103402447659    4.69425161962870    4.11218777170433
H        10.37653341727486    4.93415898400232    4.51301963543144
H         9.07756519279234    3.73921227871557    4.53752761131426
C         9.50538209948341    4.53035661626408    2.58978915464284
C         9.76449433059430    8.25688824615817    1.87908928497401
H         9.36535450228733    9.15223713433661    2.34915090999382
H         9.67859240378768    8.37203151382968    0.79815943616505
H        10.81886666289231    8.16284532996428    2.14240323164735
C         7.58867632223245    7.07870195626522    1.73034041761178
H         6.91473034081612    6.35170192831612    2.17089733412416
H         7.65375794577629    6.88527970183498    0.65937790699650
H         7.16343571136766    8.06884969991088    1.87793335425488
C        10.71967699405610    3.63428318026257    2.31220047066055
H        10.68820539597390    2.75413460189801    2.94957469629657
H        11.64188023962761    4.18072092663247    2.51418140031579
H        10.72489212787745    3.30302390871139    1.27332154738485
C         8.26287829521500    3.81563500556249    2.03689246174685
H         7.34191244012248    4.28617253750767    2.36431232322171
H         8.25506871987481    2.78207433401477    2.37553776148852
H         8.28654587323848    3.82340467394680    0.94694745457039

