74
CSD_code = FOFYAD | q = 0 | S = 0 | Stoichiometry = C35H31F4NO2Pt | MND = 4
C         6.63607149510976   11.64626673894359   12.51167071529771
C         4.69785935452811   14.18287612066436    9.46496408972097
C         4.73343307152690    9.18169248947259   10.20820151304907
H         5.21117447369731    8.21151131945212   10.16162652376646
C         3.13223541459922   16.04517071951001    9.16511748671682
H         2.43562940916802   16.57230683430048    8.52953294487516
C         3.42183280564381   16.49747366774406   10.40927896930102
H         2.98746403454359   17.41455152489961   10.78010396775283
C        11.14973356288545    7.30373197876676   14.60552922876246
H        11.68529639638055    7.03811787635977   13.69707795510017
H        10.55264841863377    6.45517509907401   14.93135053256516
H        11.88659576800427    7.51035901411757   15.37942550738781
C         9.57920997265257    8.89004140175122   15.71845920661215
H        10.31169429210014    9.09376225541419   16.49611007337345
H         8.95273976016525    8.06028399535183   16.04016589300635
H         8.94973643666050    9.76663690873439   15.59118232787945
C         9.17418173319540    4.67086152312454   11.24071783499523
H         9.18495821078468    4.37755919948097   12.28783163547195
H        10.12665382632752    5.13134795336568   10.98792026742450
H         9.06868099600713    3.76652285756091   10.64419428798469
C        11.18198718716004    9.71746330763987   13.97465548542375
H        11.91822461304812    9.92795408424933   14.74692741893345
H        10.58272370527604   10.60862050062317   13.80779243445081
H        11.70598283974155    9.47713404317776   13.05155648441041
C         7.96117648756706    5.86388787486919    9.42067561247074
H         7.81564951177626    4.92824243621251    8.88580441286143
H         8.89234960153808    6.31599553491792    9.08408640940705
H         7.14290491318802    6.53469086838853    9.17213925910621
C         6.69582896993830    4.95170898850375   11.38384323637524
H         5.84798329330724    5.58717843868748   11.13934602936286
H         6.70396399601518    4.78451760443448   12.45950263760268
H         6.56526014583307    3.99411951061546   10.88475954199071
C         3.51386224889687    9.41206665532472    9.59799218017929
C         3.58778074130800   11.64445849385652   10.42820868379746
H         3.13631642665344   12.61010516247134   10.57827522837681
C         5.50861626652210   13.20783985596892    8.85444784523540
H         6.29409787721632   12.73795979776475    9.42557855961995
C         4.80255236757784   14.52830426970852   10.85759526841134
C         5.66783007647879   12.30446762982478   11.72872286851895
C         3.80592926306742   14.91101984688050    8.63884818170857
C         4.85846073530492   11.38512645272918   10.95566017745884
C        10.28603241824160    8.54622295543961   14.40014194276155
C         5.35500827913091   12.88343341759627    7.53120117513268
H         5.99429645320994   12.13734323174356    7.08333576251496
C         2.90964415100897   10.66437024794559    9.74038249856043
H         1.93327515642243   10.84873499242550    9.32086035250117
C         9.19256246065948    8.40225477603139   13.32767120385049
C         5.46561570746363   13.71112993266245   11.83052593730891
C         4.28665410950674   15.77131844680146   11.27057100178881
C         8.08151093101213    6.97256155062798   11.63752009953554
C         4.64955451576441   16.30788429833336   12.53122526437516
H         4.25282582638088   17.27151486525369   12.81428526708588
C         5.96089978287311   14.34878968412576   12.99606559556183
C         2.82291355626313    8.33848055220026    8.81328559181443
C         5.54130532757577   15.66215520091883   13.32387947822913
H         5.91388210328995   16.11100358813188   14.23177707673037
C         9.04236573101915    7.20846565715244   12.62712448514221
H         9.71653806771561    6.40931053257406   12.86180980624636
C         4.38519981007753   13.52021907092129    6.75192643723513
H         4.25400735213123   13.23620287098104    5.71864345003660
C         7.26640185618767   12.35734896390947   13.53860963997871
H         8.01800449870710   11.88686308667045   14.15314217441843
C         6.85525151033556   13.63396234614525   13.81767920315545
C         8.00847370003838    5.60845283490125   10.93275679973996
C         3.64291826565703   14.53552285056570    7.29397628094095
H         2.93572955758710   15.08285286618035    6.68730472745767
F         7.34131460650130   14.25681442872046   14.91384980783443
F         2.70276233790516    8.66171682488322    7.51175288286356
F         1.57249216497576    8.11092322886035    9.25306708838404
F         3.46165885350939    7.16223009797519    8.85378316577159
N         5.37941397194784   10.12870805803443   10.88035140287840
O         8.50300751837481    9.46269959355156   13.18700969931058
O         7.20831630766960    7.80096121600200   11.26159906261912
Pt        6.95135241085009    9.76133689677256   11.97320672140426

