40
CSD_code = FOFZAB | q = 0 | S = 0 | Stoichiometry = C17H16FeOS5 | MND = 6
Fe        2.06164210711010    1.56403190690425    5.26086512464285
S         0.18525293402655    1.04670711440158    4.16810543609097
S         1.63035415931185    0.06906987498279    6.86681212955352
S         2.48073230459128    3.16090933059509    3.67097469561102
S         3.24668681873677    0.07177066269732    4.09272501385863
S         0.88700309303723    3.15826405003308    6.41614219282405
O         4.33782712117207    2.76394616675704    6.59046662744550
C         3.46301286697924    2.24171457941447    6.07931021108293
C        -0.71389488276827   -0.04275862362797    5.33528958443390
C         0.17821605731903   -0.88142424541556    6.22318946269657
C         0.74333457351571   -0.08877201433982    2.84165827338202
C         1.96318155068568   -0.91152077384128    3.19282040072303
C         0.80864051571988    1.01736493097364    8.13462575052702
C         0.50728086169902    0.39864287614359    9.33750269733601
C        -0.14023115470550    1.10762137416204   10.32956311387007
C        -0.46879995320037    2.44232740723576   10.11143336691532
C        -0.15241470314213    3.06077201657033    8.92389217706995
C         0.50444323204396    2.36057868763323    7.90248477264591
C         3.54610423163368    2.35185148261803    2.57492456322511
C         4.07712641047727    3.04369027181870    1.47735172041378
C         4.92302460392941    2.41728884669673    0.59154344225268
C         5.27727791407756    1.08277711274164    0.76692843743252
C         4.76768171074588    0.38241302581332    1.84198935281218
C         3.89948498602060    1.00862293761295    2.72224848407579
H        -1.39970070743806   -0.65930552528018    4.75469363375142
H        -1.28719478478356    0.66525371109627    5.93649350333306
H        -0.36796785107022   -1.24015119076254    7.09524880732050
H         0.60257906739379   -1.73329605436544    5.69328003137723
H        -0.10205822674944   -0.71825918769126    2.56509212219828
H         0.97117337853286    0.59033912955391    2.01804324749905
H         2.44264938808783   -1.29758549935954    2.29361953965695
H         1.72386270294325   -1.74328378766258    3.85410815572921
H         0.78259198542860   -0.63590219530303    9.48374373918660
H        -0.38249298162539    0.63044766342478   11.26625129091406
H        -0.97244055769171    3.00200326986628   10.88553935326084
H        -0.39716096756235    4.09716816942797    8.75243596808668
H         3.80589443027862    4.08000730829955    1.35132544520381
H         5.32152803389905    2.97022814475617   -0.24606187510216
H         5.94851541377943    0.59921864771815    0.07454905248252
H         5.03505431756088   -0.65127160230005    2.00789095418027

