91
CSD_code = FOFZIJ | q = 0 | S = 0 | Stoichiometry = C40H42O8Ti | MND = 12
Ti        0.06282944908379    0.20445161603469   -0.05184769499907
C         1.61646365488418   -0.33605887754415    1.50100285962758
C         1.78263917170063   -1.34463278596484    0.51939003455938
C         2.28542213586952   -0.72863437403633   -0.65187492456297
C         2.50213596493913    0.63909236289290   -0.37268256836157
C         2.06106508143191    0.89487339405147    0.94483270323577
C         2.69944882936856   -1.37255608796077   -1.94456922100798
C         3.75897045523794   -0.50770275825751   -2.63137009379225
C         3.28168147459725    0.94086842696511   -2.71326384242848
C         3.21472591665879    1.55871482171011   -1.31549249520551
C         1.50981940412139   -2.80981982288438    0.69652672292284
C         0.31247879915258   -3.19482914311380   -0.19258171810116
C        -1.04208391916707   -1.30220438989344   -1.36511745416578
C        -0.64792304618111   -2.04145933802574   -0.22131419642697
C        -1.36620936835949   -1.53372627887058    0.89312684860557
C        -2.23949781954348   -0.52489831716147    0.42541623130502
C        -2.02861128130129   -0.36809686435748   -0.96449548326460
C        -1.48962701180762   -2.11138854242718    2.27513195914876
C        -2.93404118776165   -1.92601108976228    2.75088696842888
C        -3.31576454939013   -0.44874278505798    2.68056286767017
C        -3.37558794311991    0.03081896781580    1.22823243163377
C        -0.75335619071674    1.90546275436983    2.01180400298149
C        -1.21964913065491    3.31503470961623    2.47711341930661
C         0.71498834169181    3.60196619219820    3.73892145571576
C         1.25835816107606    3.81381594296549    5.12339813623219
C        -2.71472591555763    3.29928550498799    2.60590906488906
C        -3.31365395248188    2.85575503582043    3.77757619638929
C        -4.69282654625047    2.80019753547445    3.87169863260927
C        -5.48042095191247    3.17492031144573    2.79639791727946
C        -4.88564349650549    3.61324879525475    1.62484423947704
C        -3.50707411844487    3.67800946631453    1.52846013165829
C        -0.43885986283159    1.72662384354465   -2.49968824144454
C        -0.93208423924782    3.16109089254354   -2.11837085362626
C        -3.02390763470458    2.99169027690849   -3.14830224470619
C        -3.82132729625870    3.42369022318361   -4.34721590906414
C         0.24262025180570    4.08808884850002   -2.01755925082149
C         0.94979703576243    4.17118458933612   -0.82333545052892
C         2.04261224459812    5.01474021286767   -0.71935035758963
C         2.44091980824296    5.77446108948073   -1.80694003069092
C         1.74788391904417    5.67999428139901   -3.00238349767471
C         0.65479468530485    4.83831753989960   -3.11169338547097
O        -0.67705059064511    1.75425940687183    0.75039247189424
O         0.24170335979056    1.15582460861475   -1.57810695459487
O        -0.51779590313342    1.03363903516563    2.83060200764221
O        -0.61799212323620    3.60773198520842    3.73281919632830
O         1.38101138691047    3.44722659786256    2.74546973509042
O        -0.67720284514974    1.26471489445028   -3.59274208530332
O        -1.84291653507072    3.61087522018079   -3.11052329905409
O        -3.39438430629231    2.20424587134060   -2.31429741794939
H         1.39655454282140   -0.50405143911823    2.54756706962775
H         2.19689118422449    1.82100206376244    1.48829861590258
H         3.09256585118349   -2.37719636267701   -1.75865918336495
H         1.83763350544213   -1.46812372073378   -2.61572526920499
H         4.68964054678977   -0.54926213917620   -2.06005402033642
H         3.95770733729726   -0.89620236274087   -3.63204164644470
H         2.28857750768036    0.96662239235867   -3.16810176868731
H         3.95704890986582    1.52631986356055   -3.34033885233033
H         2.72630461357127    2.53424582950646   -1.35517363399606
H         4.23302465879411    1.71570270368497   -0.93732667176602
H         2.39112965995253   -3.39969560138198    0.42649081939216
H         1.27771283931391   -3.00782292563815    1.74533198723723
H        -0.17861867668010   -4.09321648054331    0.19500380662577
H         0.65156036392220   -3.40807266960750   -1.20895397078414
H        -0.75647467473277   -1.50742404337782   -2.39065419387258
H        -2.62542460952594    0.25518926018736   -1.61756639179496
H        -0.82548725176461   -1.59843123411454    2.97760633552032
H        -1.22714083787702   -3.17330490813269    2.26561970740147
H        -3.03356301816611   -2.28801321866501    3.77601585412906
H        -3.60528197685002   -2.50926349437371    2.11539501185481
H        -4.28449269504996   -0.28183738348956    3.15584448314359
H        -2.56770670453648    0.12788433670004    3.22665003860056
H        -3.39577978702947    1.12299297219167    1.18437854660469
H        -4.30602520377883   -0.32058148967071    0.76524383398706
H        -0.89325215044674    4.05062652178980    1.73042080205129
H         2.23940437064214    4.27609544925880    5.06860799602265
H         1.35575209304246    2.84007893642019    5.60038038458877
H         0.57295679639201    4.42162967764608    5.70575320907352
H        -2.69190052728459    2.56064222450984    4.60785430458895
H        -5.15354247330304    2.45848872905041    4.78671495391054
H        -6.55657356333247    3.12613982280548    2.87022878641042
H        -5.49431271885945    3.90229701476104    0.78159399117591
H        -3.04420087111609    4.01515201221506    0.61211387096678
H        -1.44371873012022    3.05858745621611   -1.14936242175443
H        -4.87728758186726    3.23623462906683   -4.17791698623146
H        -3.48672334822222    2.83394837760315   -5.19886093629548
H        -3.64077717227726    4.47302473777368   -4.56005186117957
H         0.65378253525198    3.56326890960775    0.02096715607641
H         2.57952068738328    5.07105124315676    0.21581477391733
H         3.29171126935438    6.43456959501082   -1.72469171928281
H         2.06074801696267    6.26357315206361   -3.85571264537907
H         0.11120551735450    4.76047776257537   -4.04000172987703

