91
CSD_code = FOFZEF | q = 0 | S = 0 | Stoichiometry = C40H42O8Ti | MND = 12
Ti        9.78146365248054    5.29248608888089   12.71754333019111
C         9.58517567979534    3.96170271610519   10.87095874638327
C         9.45093677193721    5.29778549349882   10.40165012774507
C         8.25896864746925    5.83336416901082   10.94732571602272
C         7.63489361947945    4.81385045718342   11.71265981296285
C         8.44752739747419    3.66077368758324   11.65622194195448
C         7.57043970297946    7.10967629653365   10.55404373163555
C         6.21102559457580    7.24946852571580   11.24784124312801
C         5.47655357597925    5.91550685606370   11.35417934888549
C         6.25448940090371    4.96417361269503   12.26712407399005
C        10.40389248050420    5.98710571382660    9.46751363350188
C        11.82275992642692    5.85604616974544   10.04759663647227
C        11.19016890342391    7.02642778568316   12.27903086178941
C        11.73840499488365    5.93585671442725   11.54596866733225
C        12.23463452227644    4.99971918935762   12.47761613957100
C        12.07597177166640    5.54423126996170   13.77778206232465
C        11.43757585433013    6.78953519347145   13.65512907898330
C        13.03455446637046    3.75505496262373   12.21826905494606
C        13.18232644844273    2.96128731666563   13.51630141274758
C        13.68713759657202    3.86849350838156   14.63692340587441
C        12.61443229184665    4.89273197673242   15.01457430712335
C         9.05255417597486    3.42959329505660   14.61887504318596
C         9.30716742574188    2.11262599825820   15.41478330270696
C         7.27460673749337    1.20676329552648   14.69684872810869
C         5.90267633766714    0.79256344533018   15.14652193285724
C        10.02782512875227    2.42700150150427   16.69305073688739
C        11.36178918988164    2.08359100643986   16.86794175592010
C        12.00804434488825    2.39143525161075   18.05302602859155
C        11.32521534215137    3.03440227600618   19.07145003863422
C         9.99250129268916    3.37464175056691   18.90123389220972
C         9.34599387730681    3.07687057045885   17.71556542721225
C         8.48156435025596    7.52635015613545   14.04822297524975
C         7.96434523771889    7.74230641940193   15.49682383618044
C         6.14804044004440    9.09017915375569   14.91097264844379
C         5.60218085141426   10.48961205052208   14.98244752914157
C         9.18039174413944    7.72919557307067   16.37897904208489
C         9.72390571315515    6.51259071285327   16.77602027460172
C        10.87146773358587    6.48862564589423   17.54856285042449
C        11.48564521674555    7.67309246695882   17.92185906378975
C        10.95204127138015    8.88470943127795   17.51660626877053
C         9.80512637102159    8.91533831206824   16.74298446220671
O        10.01112569399421    3.79574465857781   13.86258377009598
O         8.78488177983127    6.31443975189616   13.78942271650183
O         8.00096432023594    4.02137890723225   14.76900519673930
O         8.04359878714162    1.53935493237614   15.73502240950459
O         7.65409430006403    1.23522436888783   13.55349115954576
O         8.62295578471153    8.45643301597619   13.28015352395195
O         7.29085339180465    8.98672239106077   15.59707023524064
O         5.63844237359529    8.17230378642180   14.32389367823829
H        10.31502174411753    3.23876237122421   10.52583191482374
H         8.18437445481971    2.68706130779015   12.04801868307717
H         8.18388032483425    7.98375779510910   10.79213248561931
H         7.42598950735939    7.08949816910007    9.46578781498780
H         5.60142603964398    7.96741479400956   10.69503745873614
H         6.35175529835377    7.64218754999320   12.25433841183118
H         4.47967900584518    6.08402886095030   11.76278613022556
H         5.37346247939616    5.46649937537464   10.36232816426475
H         5.77051626857254    3.98600437759908   12.32827945931821
H         6.29015485443794    5.38387929198504   13.27766771761356
H        10.35570983925280    5.54118942451887    8.46861523965977
H        10.12975726429001    7.04066634882556    9.37916741097823
H        12.46725861564960    6.65168563505603    9.66109792340332
H        12.26279954015776    4.89994671554587    9.75583480220977
H        10.84414644642020    7.96471494223778   11.86237342341614
H        11.26676241156420    7.49317543084323   14.46029369803447
H        12.57010239142054    3.12935983013137   11.45051804537251
H        14.02855782963704    4.04151880886441   11.85102105536608
H        13.87242262334911    2.12820585017254   13.36416867025346
H        12.20404647372149    2.56082710648562   13.79244980824969
H        13.95095825705878    3.27615825755355   15.51495685749960
H        14.58610035550819    4.38935081670166   14.29835162729373
H        13.02603298614778    5.65265260040344   15.68514216344031
H        11.80553021912822    4.38383663953977   15.55128355410346
H         9.88202366165857    1.42796463513287   14.77809871327872
H         5.45917391079822    0.12197205510140   14.41673793768057
H         5.29248208796523    1.69150224920769   15.21735875389419
H         5.95299721658327    0.32688198221130   16.12583010611806
H        11.89286085134542    1.56890016235298   16.08085359204295
H        13.04545974161753    2.12076950242026   18.18402754386034
H        11.82970910895576    3.26890952679022   19.99718276558104
H         9.45779959743356    3.87797618588321   19.69280652405248
H         8.30843743421397    3.33558091151115   17.57173403691522
H         7.28467800128892    6.91346490173651   15.73374541917285
H         4.53070951772017   10.47693534823289   14.80785403132588
H         6.08138628870849   11.07716300928674   14.20150104264723
H         5.83432713201349   10.93423704428687   15.94522095354418
H         9.24518387503398    5.59062478357761   16.47585958331102
H        11.28297762124941    5.54244231701885   17.86620733283845
H        12.38039950023099    7.65055363454638   18.52640759610043
H        11.43152046709384    9.80992520972309   17.80042739490269
H         9.38519624220049    9.85404641168543   16.41819229237046

