25
CSD_code = FOGCIN | q = 0 | S = 0 | Stoichiometry = C6H14O2PdS2 | MND = 4
Pd       -0.00016875272462   -0.00007483479954    0.00016230973715
S         1.36678650833382    2.09937059879313    0.61922097436262
O         1.95022415597478    3.27505539783559    1.24703004889123
C        -0.34346990403792    2.05526089181868    0.21796809244843
C        -1.47730901785204   -0.52393868685733   -1.39027409392805
C         2.19355243855699    1.85321105628381   -0.98329886773194
H        -0.90997662113490    2.33172959459495    1.11017817787092
H        -0.55055918342211    2.75270492813941   -0.59313997887440
H        -1.12941039599161   -0.62169083106241   -2.42108413556534
H        -2.50985456068215   -0.17663843738793   -1.37265703530838
H         2.03558522869073    2.74281302394157   -1.58405107808492
H         3.25395728537798    1.71889903684110   -0.79672225381009
H         1.74813276139389    0.96416586149054   -1.45259983133134
C         0.34343521578583   -2.05531421306098   -0.21796111067637
C         1.47726281126940    0.52389704120234    1.39026978998665
S        -1.36681520244824   -2.09942063929728   -0.61924225011028
H         0.90996462221543   -2.33170527256438   -1.11017776411936
H         0.55052923278881   -2.75279824015214    0.59311254811106
H         1.12943549480008    0.62168951599778    2.42110273703353
H         2.50979788570764    0.17657012674441    1.37260718092340
O        -1.95026865781734   -3.27510671788445   -1.24702951855515
C        -2.19348592687792   -1.85313679986298    0.98329053506545
H        -2.03552015673143   -2.74269938926475    1.58410520701348
H        -3.25389756068960   -1.71878028501744    0.79677291843664
H        -1.74792770048585   -0.96406272647201    1.45241739821504

