33
CSD_code = FOGGUD | q = 0 | S = 0 | Stoichiometry = C13H6F12SW | MND = 10
W         2.88260156333881    5.27548385864187    3.51548128094716
S         1.34113518029414    4.22704672569149    2.06603769383362
F         1.99342888129293    8.02523396322450    1.25725471450254
F         0.67943410536069    6.81677734226597    0.05456897178287
F         0.33073005611252    6.99805647054843    2.17775457032920
F         3.91402319537515    4.40251212420724   -0.52564693748580
F         3.94213666644899    3.34714037732441    1.35416545317388
F         5.59514431736023    4.60179994007183    0.80269422401258
F         4.52318115234052    8.77393812104045    2.59779476337878
F         3.12747515815245    9.76034153831336    3.91026947555669
F         4.77340872597111    8.62837022898590    4.73143023823849
F         0.43061924745538    8.59805133100557    5.12328681509271
F         1.67459537370410    7.69419880880031    6.64223699000372
F         0.09677703500539    6.55328342183116    5.72768088467581
C         4.63688061831083    5.04523026572844    5.07172884281264
C         3.40947323876653    4.84346323761080    5.77106994670370
C         2.76786811729548    3.70619205786639    5.22378780996989
C         3.59703570902581    3.19423325366290    4.19363499183930
C         4.75118151135650    4.02161265099078    4.09811176117590
C         1.29889825328507    6.87507423554265    1.23494439387703
C         2.16311003672338    5.70936750041574    1.57460985768755
C         3.61681303690116    5.69266033091869    1.46239769889972
C         4.25619233482770    4.53629966297108    0.76042914196453
C         3.84181490111273    8.64584096962608    3.74777828796022
C         3.06142946883986    7.38577314309597    3.80932835914779
C         2.01413198715304    6.95887264347953    4.45695246884167
C         1.05060599871697    7.46994703735683    5.46178335565710
H         5.40951338206961    5.75164423965663    5.35062906217125
H         3.11126563937729    5.37410914495842    6.66926041542688
H         1.87547029693392    3.23508055541801    5.61276397018916
H         3.45307941056633    2.25412719706813    3.67617338184861
H         5.63001288043284    3.81483383872030    3.50150440471434
H         4.05813252009266    6.62800378296296    1.11050271106881

