73
CSD_code = FOGGEP | q = 0 | S = 0 | Stoichiometry = C32H36N4Ni | MND = 4
Ni        9.30841770940249    5.08629241797722    6.54528504188614
N         8.11277948220878    3.63957647885872    6.10369283457216
N         9.82618433534108    5.25370166082806    4.69544018919212
N        10.49806459840286    6.55332989533915    6.97672938160921
N         8.78255918843391    4.91053068391648    8.40205863713368
C         7.56993883833040    2.72248727149845    6.95983442828509
C         6.74093963493748    1.80965116706027    6.23070380541186
H         6.19228659818151    0.98826173669336    6.64636255232076
C         6.74229652528727    2.21688062878474    4.94113853302196
H         6.20942749376449    1.77314293926157    4.12403800614268
C         7.63340939184760    3.33484509800327    4.85836526792722
C         8.04384788716676    3.91016902906206    3.65883990901937
C         9.15465625131235    4.74878753584834    3.61525162279540
C         9.84497462670556    5.09415053719130    2.40905329567367
H         9.53933858325169    4.84235766439485    1.41327162049928
C        10.96729638445366    5.75480558636420    2.77345448209119
H        11.72312411116325    6.14834007104577    2.12353601337543
C        10.93240360630758    5.88614457325456    4.19961701372368
C        11.82544358454707    6.68033587711285    4.92195932486644
C        11.51949820575718    7.06659332347905    6.22322515747783
C        12.14468817154395    8.15136438357255    6.92786523223904
H        12.96389066238910    8.74577342274632    6.57496846603742
C        11.46738345769800    8.31380802924357    8.08620289577815
H        11.63334967084954    9.03468925786236    8.86342985774656
C        10.47076892662480    7.28751022441049    8.12625628843671
C         9.71165352966539    7.00877544920971    9.24676449306061
H         9.78464357994994    7.66982290770165   10.09669465166954
C         8.98013209241353    5.84361182945977    9.37719254891170
C         8.44862171069443    5.38287557017585   10.62350800492310
H         8.46603252061043    5.94216031349283   11.53904335751466
C         7.98271380704350    4.13260371533732   10.40781529361402
H         7.52147259026856    3.48670861749901   11.12822312294811
C         8.16517212961550    3.85061298882069    9.01079010770447
C         7.66725948261476    2.73035502817052    8.35308205729539
C         7.37693344661333    3.50239670321645    2.37473222783839
H         7.43172745152254    4.32669317205357    1.66508742647716
H         6.32131404831726    3.29888424890965    2.55822834396913
C         8.03409736686083    2.25315963770487    1.77081533670491
H         9.08616110217990    2.46135367556542    1.56599049498541
H         8.00118450885931    1.44908229428419    2.50916919688850
C         7.34903008616995    1.78257682764041    0.48803797522693
H         7.75768108257167    0.80631789734696    0.21630115519349
H         6.28025776001604    1.65216865840349    0.67386464914750
C         7.54603819895352    2.73878178855198   -0.68270320086717
H         7.10601801680675    2.32393543227279   -1.58670798469784
H         8.60625971711854    2.90349309878617   -0.86434302546222
H         7.07413578924910    3.69897657228694   -0.48997968771417
C        13.09370101376916    7.13316896143128    4.25780555986543
H        13.58518358081666    7.90156055924030    4.84998398469214
H        12.87718036139191    7.56181120892747    3.27806393871237
C        14.07436282785444    5.95672724704729    4.09205689450834
H        13.58032907146412    5.16942824801367    3.51310273240814
C        15.31769376623149    6.41785614126340    3.33665330284917
H        15.05375873117168    6.80754472975299    2.35563325402643
H        16.00840967377680    5.58890941100667    3.20022840484821
H        15.83049445191896    7.20187202038593    3.89034624755894
C        14.45480169498946    5.38615071342286    5.45510767530676
H        13.57334748064024    5.02091224699165    5.97709413465545
H        14.92570889364329    6.15020696129412    6.07061458996564
H        15.15285652104612    4.55993520394999    5.33981199535993
C         7.19247595339217    1.52880994828355    9.11830884964667
H         6.19269197714221    1.24075123302441    8.78973314762186
H         7.13702774668012    1.74686535983520   10.18224204709248
C         8.15330278050869    0.34077162469966    8.92244924990563
H         8.22972899149608    0.12659932735617    7.85127166410662
C         9.54365113699610    0.69091998728434    9.44445243397278
H         9.94973578599657    1.54602837884928    8.90893748365937
H        10.22141080341750   -0.14975563094364    9.31400623209883
H         9.50246595544103    0.93769523068691   10.50358715297240
C         7.60701973166216   -0.89373573073545    9.63427472798761
H         6.62328519914996   -1.15875034925547    9.25202814150739
H         7.52134926548789   -0.70998498102932   10.70351690963615
H         8.27091865989129   -1.74237397148321    9.48600284244281

