57
CSD_code = FOGLIW | q = 0 | S = 0 | Stoichiometry = C16H32B8Os | MND = 11
Os        1.93096560432899    3.10301869072798    0.07426862098887
C         3.69189442993701    3.94738734790565    1.31537385881342
C         3.70761904361606    2.53705042676363    1.43877708753432
C         2.57463857580088    1.85297422174408    1.94136090199585
C         1.39901430594441    2.57951304218295    2.26068503780995
C         1.39327231026392    3.99245943886670    2.17446968551535
C         2.51766077704514    4.66841603781211    1.64274422803212
C         4.94929086707794    4.68411015279505    0.93178481404971
C         4.94647498242925    1.76157722573321    1.07411109846901
C         2.65593968359710    0.37718430653853    2.23305931516881
C         0.17813591731975    1.85002435721176    2.75641600273324
C         0.22709715878526    4.77870884808300    2.71597324852203
C         2.48456633202943    6.16493158120596    1.47801386767059
C        -0.38336418836382    3.28722482234378   -2.12395727269635
C        -1.86532486749540    3.48590060940317   -2.38653289114376
C         1.94568489793769    1.76234546022209   -2.82717265558062
C         2.47958635680711    0.64236339389783   -3.70189701638508
B         2.15905115466132    4.33738401118007   -1.83522880317052
B         0.54342225529569    4.30337802828635   -1.14133342764756
B         0.71286642607409    4.27757032913772   -2.89086449976703
B         2.14140046711300    3.33903006005746   -3.32492939098304
B         2.92233833524500    2.75346703777325   -1.86298427241150
B         0.11051274287554    2.51947013731966   -0.84199842328130
B         0.51166567770987    2.45045283811180   -3.20194004859997
B         1.65605886065564    1.52022914391411   -1.30042867340689
H         4.96648944994079    5.67815332858827    1.37035641153103
H         5.02535086397882    4.78597249352419   -0.15106919399949
H         5.83001901830540    4.15638108800511    1.28972959892253
H         4.68609104091316    0.77287421306090    0.70722577751587
H         5.60654399110972    1.64864014543447    1.93735095607112
H         5.49686168533958    2.26394968002224    0.28441887725713
H         3.66398105623240    0.09885262802195    2.53100796206599
H         2.38503273346870   -0.21169934003966    1.35576558716843
H         1.98895737630859    0.10279926247308    3.04574152726181
H         0.10751802727595    0.86824872067471    2.29668009032170
H        -0.72553383309519    2.39318219728282    2.49556615601289
H         0.20559999850294    1.72429874185742    3.84123159262687
H        -0.25738380545607    4.24229127679428    3.52786657947821
H        -0.51541769301542    4.96960147417825    1.94057368035209
H         0.55972729605745    5.73556640491481    3.11094752662796
H         1.47284972994229    6.50693482532277    1.28261246824483
H         3.09182619020168    6.46781218587912    0.63030854391911
H         2.85599869748601    6.67028841467567    2.37255211940332
H        -2.04561162247227    3.84676618027933   -3.39780574855866
H        -2.28267262233877    4.21469226642851   -1.69346101706759
H        -2.41474946677636    2.55281366073625   -2.26031773358261
H         1.89129445902846   -0.26693573383800   -3.57644227308930
H         3.51059663993334    0.41093384269046   -3.43936925414593
H         2.45604277026223    0.91343534720341   -4.75610694550752
H         2.81987103246768    5.31241390580487   -1.76107432644812
H        -0.03517107352810    5.16899481776120   -0.58673151457970
H         0.28418523435135    5.12247936528073   -3.58704589878423
H         2.72563524035607    3.51997456313915   -4.32923398722612
H         4.07233783569271    2.49626882768906   -1.83974076564067
H        -0.72339511430709    1.96223530704006   -0.21758082864412
H        -0.08922064651816    1.93359142571705   -4.07073766544408
H         1.70457740366241    0.39781693417924   -0.92878869429291

