111
CSD_code = FOGLUK | q = 0 | S = 0 | Stoichiometry = C60H44ClN2OP2Rh | MND = 6
Rh       -0.39942637007760   15.71754000175214   17.92523168092963
Cl        6.06066682231235   13.74754078664135   12.40654410714588
P         0.99082424116926   15.76462338339241   19.71788784032181
P        -1.95113480242837   15.59424235802759   16.27288296152402
O         1.24840234989552   15.77989408652190   16.51802633070128
N         0.01691407782552   13.78263609868401   17.65582453133230
N         1.02423620176989   13.51378308945199   16.79316445832148
H        -0.57253444454498   17.22488207435445   18.00278544995528
C        -1.91000764477009   15.31565629541600   19.23913937471728
C        -2.60898390436215   16.35471714571304   19.78030604870778
H        -2.37415964084062   17.37369648351945   19.51097834982922
C        -3.66741537607206   16.20239663610595   20.71275083872568
C        -4.34790175307189   17.30189538786779   21.24237671826609
H        -4.06144943390558   18.29612183591212   20.93044699108848
C        -5.37170638644838   17.12377558772395   22.15232733866110
H        -5.89001056763547   17.98216918490594   22.55570655715143
C        -5.73773994132820   15.85115271463614   22.55068508947140
H        -6.53906316474120   15.71423743986406   23.26303977127523
C        -5.08339341474799   14.72716464687000   22.04259064087593
C        -5.44458235191900   13.40837086681535   22.43511783865380
H        -6.24702664012486   13.28304160043630   23.14849616952970
C        -4.79366956485075   12.34005600018498   21.92071372650867
H        -5.06450103032004   11.33478550514157   22.21341844375620
C        -3.73489004300456   12.49172468803717   20.98291791943010
C        -3.08042181880761   11.37185506355434   20.46692179985165
H        -3.38538411347729   10.38419170524577   20.78199661857109
C        -2.06137784354607   11.53412989226950   19.56962231415435
H        -1.55797251936277   10.66334897250243   19.17353936466149
C        -1.63649565266867   12.79919061633344   19.13754929509959
C        -2.27235435785349   13.97158574820671   19.62933300125784
C        -3.33586776172939   13.78801783833409   20.56485493255207
C        -4.03002000683389   14.89758815071843   21.10875920334703
C        -0.55494602420260   12.76288045392087   18.20091539186013
H        -0.17824071783368   11.77989512946363   17.92197748377737
C         1.58543003380601   14.58566992486073   16.26784705793152
C         2.69238859395684   14.35224636014480   15.31675900084322
C         3.33716125624290   15.44877932004759   14.75186992729216
H         3.01077119243290   16.43963860972145   15.02805140027909
C         4.37310729144950   15.26996001701934   13.85726692490441
H         4.87646784109989   16.11670479861487   13.41673975948630
C         4.76427906449542   13.98180135756647   13.52710630362396
C         4.13360274714615   12.87726532075216   14.08015970125529
H         4.45449807969981   11.88320111872313   13.80916862264915
C         3.09833340164048   13.06625430785598   14.97455573597586
H         2.59147804371676   12.22471053724635   15.41903718208931
C        -3.26246022547746   16.84511269976395   16.02749054319633
C        -3.19736883304952   18.09294907021049   16.62877300893433
H        -2.37055834787916   18.31524876832447   17.28703248038129
C        -4.17758218376090   19.03914612292996   16.38321715563845
H        -4.12318150227341   20.00743979446707   16.85927410165903
C        -5.22444218469883   18.74680180170779   15.52680754158370
H        -5.99055166422190   19.48361569676203   15.33487253248514
C        -5.28592739214451   17.50689804167502   14.90932592102502
H        -6.09758939986370   17.27915035560052   14.23355466243521
C        -4.30929955155265   16.56132823277914   15.15386362670623
H        -4.35808876199139   15.59541329348641   14.67028375040511
C        -1.30640110005297   15.60336192056438   14.56256768281393
C        -0.35187502921222   16.57956492103888   14.28591189039921
H        -0.04349934801845   17.24944920851731   15.07770025651403
C         0.20587451245367   16.67391784024441   13.02550481787883
H         0.95617986476264   17.42347490791072   12.82070632689954
C        -0.19573098758019   15.80406543910775   12.02478870618786
H         0.24646929451704   15.86772529886074   11.04142853261502
C        -1.17200742433389   14.85747523208746   12.28450393631279
H        -1.50005826224699   14.18998877647902   11.50051230979555
C        -1.73223383613456   14.75657590535905   13.54622044254473
H        -2.49828781013960   14.01720560875832   13.73174836489779
C        -2.93478916682562   14.07004727713177   16.41979373461098
C        -2.42747137396569   12.84782139935329   15.98594066115252
H        -1.48634851708529   12.81267533039610   15.45237932533712
C        -3.12121681149918   11.67801212895202   16.24036552561553
H        -2.72784906118588   10.73470971961066   15.88962983049747
C        -4.30451913797604   11.71207755704613   16.95828009852740
H        -4.83709711588715   10.79597970299193   17.16653651961669
C        -4.11650631772182   14.09394126228926   17.15638545713838
H        -4.49335465220003   15.03685672432294   17.52914055028836
C         2.77522115203442   15.90445095377460   19.34860737818767
C         3.12170013604002   16.86532395730196   18.40163492327472
H         2.33749916898646   17.44566825957074   17.93376525862898
C         4.44479675547135   17.05624386613919   18.05260925084262
H         4.70693777479864   17.79391768651448   17.30831928329911
C         5.43556122353738   16.29933294138476   18.65657640841124
H         6.46988258739295   16.43900446254751   18.37855367753204
C         5.09893205967964   15.36785309543806   19.62393826747088
H         5.87157600507316   14.78796350250477   20.10816831296860
C         3.77493743333694   15.17076477763056   19.97601665893582
H         3.52766235575279   14.44395702098504   20.73672845397991
C         0.92506444444605   17.06108579484469   21.00611139570505
C         0.26775326490087   18.26297171860871   20.79012445411103
H        -0.24912584360182   18.41704324898040   19.85467641596254
C         0.27927994357354   19.25049313177593   21.76010029987456
H        -0.23968995348688   20.18206226923348   21.58690175833780
C         0.95708531872949   19.04662645997965   22.94915134657222
H         0.96595395767677   19.81550382963471   23.70769549619422
C         1.63179867733799   17.85456180255125   23.16346948798121
H         2.16971314618433   17.69626321114135   24.08696479036966
C         1.62084416592602   16.86784871971223   22.19694812398215
H         2.14948878723967   15.93991903200425   22.36584294710598
C         0.81797683176083   14.25320037639552   20.71662473472248
C         1.42447385296772   13.06558916120332   20.31508412066765
H         2.09445653678001   13.06299805797499   19.46467877308743
C         1.16820461615911   11.88931281800961   20.99680004604130
H         1.65198130312493   10.97414506402258   20.68693330389516
C         0.28135927741830   11.88019688429138   22.06005488514606
H         0.07445853915168   10.95846121701498   22.58339183203472
C        -0.34995738975013   13.05209454475977   22.44403838554317
H        -1.05796782053209   13.04450962819096   23.25969354928537
C        -0.08777883768021   14.23204761541594   21.77416449913082
H        -0.59146180681254   15.14453621078798   22.06361374332147
C        -4.79810174194047   12.92127427595101   17.42036820261692
H        -5.71002754124445   12.94952522422669   17.99851904254849

