44
CSD_code = FOGMEV | q = 0 | S = 0 | Stoichiometry = C24H15ClN2OPd | MND = 4
Pd        9.10714846590493    3.13855090515751    2.25811312201945
Cl        7.69599099240808    3.24696087819306    3.93472030292918
O         7.79533752968415    1.66477441653178    1.16072408861242
N        10.23316999477393    2.68780281965140    0.72551530021409
N         9.63325409267097    1.79997746937035   -0.13089488189980
H        10.18654011865796    1.44262258620670   -0.90637231795129
C        10.42049942102098    4.50817082436181    2.91837476104438
C        10.02033618792550    5.36276674073332    3.91228715554465
H         9.02260868649679    5.29463976882853    4.32490005630378
C        10.87061357252717    6.34612663760522    4.48572415930285
C        10.43226952550669    7.18680004025238    5.51373651158178
H         9.41497596630020    7.09665932209436    5.86412449880157
C        11.28833873663001    8.11297797523183    6.07852506021992
H        10.93818977743838    8.75485532791959    6.87384236380605
C        12.59327168596919    8.22227571122527    5.63339874181748
H        13.26033686193840    8.94726737298797    6.07759746825132
C        13.06944667243896    7.40334792086724    4.60649865490345
C        14.40480438640775    7.49888962550306    4.12795082504933
H        15.06627361175238    8.22167739712607    4.58397589271289
C        14.83277148501011    6.70290203415784    3.11917911615387
H        15.84593144009904    6.77674489310698    2.74957657065037
C        13.97234502661460    5.75127106755573    2.50833751337749
C        14.42741241453045    4.95504088360827    1.44976169155623
H        15.44624398843896    5.05999883747098    1.10685348901406
C        13.57880314691807    4.06950504703924    0.84827337447525
H        13.93063200193465    3.47751826636071    0.01454510826326
C        12.24855938917071    3.90126876222710    1.27825478180715
C        11.75111241524798    4.65054751797518    2.38307766126272
C        12.63659904356907    5.60889836842050    2.96659919427892
C        12.19924792213004    6.45050339471895    4.01886253123467
C        11.47721178449133    2.97652206919381    0.51906601033810
H        11.98707826265494    2.49377034848693   -0.31962173234840
C         8.39106336835192    1.31253667991416    0.14431953035111
C         7.81159816788616    0.34322768837480   -0.80709840742464
C         8.24283850612570    0.20074006748821   -2.12544324148472
H         9.02391486655483    0.82911085610833   -2.52913100458188
C         7.63975233315637   -0.72994351740582   -2.95114016892657
H         7.97411193109699   -0.83364840275351   -3.97254169822515
C         6.60774526054061   -1.52380988748927   -2.47627003547234
H         6.14488520985362   -2.24995551698662   -3.12721126002969
C         6.16501674566337   -1.37722441282561   -1.17134449114619
H         5.35456769182087   -1.98679689720366   -0.80222535798520
C         6.75948904521620   -0.44684971774039   -0.34181166451363
H         6.42646226647706   -0.31332216965792    0.67619072611327

