38
CSD_code = FOGMIX | q = 0 | S = 0 | Stoichiometry = C15H14N2O6W | MND = 6
W         2.96111752378568    3.21838767803750    5.02502935916504
O         0.81666863867322    3.89380805591245    7.22595885613711
O         0.64793549866950    1.70397399100405    3.53346574606659
O         3.63928111991682    0.51175895919112    6.47784007786852
O         4.97793306147328    4.73264880650658    6.89195213063348
O         2.39227499270581    5.91773315456626    3.51690138676218
O         3.19570483745984    1.50833862324128    1.64131236840716
N         5.44129225951522    3.32586826292205    2.95219621121391
N         6.32082138464566    2.51733607229997    0.87392531751282
C         1.59369861256489    3.64123689566757    6.42845901092230
C         1.53142678168931    2.24765125514661    4.00391498388365
C         3.39668188354630    1.49461871359861    5.95133530377657
C         4.30075944302790    4.17274424828007    6.16100525339387
C         2.56792011211759    4.93859257337766    4.07911171570106
C         4.33278617571619    2.77802727493705    3.49976369680385
C         4.34463155916568    1.66951172749286    2.42670367037886
C         5.53667449043096    2.46245043065735    1.85928047182418
C         4.72329444343476    0.30955962124922    3.00109265338614
C         2.77595429764200    2.65884448574046    0.92546923388192
C         1.48795134459924    2.31072574847594    0.20010852399511
C         6.23453412984087    1.61119819013740   -0.16498933478435
C         7.10651495851953    1.66585975996055   -1.16526529266993
C         6.20495310171835    4.41525850485401    3.33846518965339
C         7.27217722600788    4.82750796931544    2.66977631105059
H         3.87954554761514   -0.07514035732372    3.56991260925434
H         4.94682585800823   -0.38547764697210    2.19554747262063
H         5.59031089301836    0.39976045262754    3.65185405743899
H         3.55145764345657    2.95744717955578    0.20336365573931
H         2.61120543021330    3.49872470936918    1.61855774246774
H         1.65955588672477    1.48193944592921   -0.48115942883431
H         0.72819702650978    2.01620693281254    0.91809989799643
H         1.13703237193510    3.17122558223599   -0.36210655407219
H         5.43601622856969    0.87204629720576   -0.14162677283577
H         7.06111254235554    0.97619780145431   -1.98827827360386
H         7.88867306123261    2.40458461512452   -1.17374430254409
H         5.83723394390996    4.89626289847631    4.23623228499288
H         7.83545454045786    5.68008921540632    3.00197137642963
H         7.59719114913079    4.32109187152297    1.77806338998493

