60
CSD_code = FOGNOF | q = 0 | S = 0 | Stoichiometry = C25H32HfSi2 | MND = 12
Hf        1.94251210605799    9.80797393379605    4.69862104729062
Si        1.75952578673757   13.00107567924944    5.57285242369407
Si        1.37812115758319    6.48179688873950    5.36090635306553
C         0.68057287233879   11.93281515938148    4.45293223066092
C         0.99678443868611   11.62786445209134    3.09845079276980
H         1.66902064798799   12.21021443267932    2.48034642591803
C         0.18237272434938   10.59271753117302    2.62557618925535
H         0.12019080599210   10.24890703711312    1.60537656191301
C        -0.67709565454073   10.20126778944822    3.68237009995311
C        -1.74879678643811    9.29584959598309    3.74859460596142
H        -2.00715420118248    8.69941581545520    2.88453791603091
C        -2.48218713946371    9.20740551068934    4.90538410001199
H        -3.31569208268748    8.52330007364971    4.96386949046569
C        -2.18277658986382   10.01074824919896    6.01820980709926
H        -2.79560213640897    9.92453144525176    6.90361308906080
C        -1.14234609910121   10.90777463213849    5.99377168219220
H        -0.95380801430459   11.54790919180094    6.84380290773297
C        -0.36102492411742   11.02517243528190    4.82894663088036
C         3.04163695139920   11.66723009037045    5.93804115085875
C         2.95078216513811   10.69243169860954    6.96861723456220
H         2.35003326280718   10.80532884144429    7.86254515783409
C         3.87904075034192    9.66608431897457    6.75856583357539
H         4.10767529503821    8.86558523872865    7.44362724879903
C         4.59164073232585    9.96466312399568    5.57028824229072
C         5.69274602080124    9.35803001816218    4.94250173711403
H         6.11896906642435    8.45322000100230    5.35410037697133
C         6.23925902572403    9.94617320680866    3.82956030433130
H         7.09304021561294    9.49486349412456    3.34615317410079
C         5.72090558231692   11.14417353848486    3.31172806191587
H         6.18957227283416   11.58300929065357    2.44276278922454
C         4.64908441709836   11.77218191828221    3.89882181560098
H         4.29686087374833   12.72112386175155    3.51839991279970
C         4.05954787126536   11.20322469690175    5.04354023930582
C         0.92451518824228   13.61062768521201    7.17407573518420
H         0.74346121221645   12.81295383330044    7.88566283807364
H        -0.02534145349781   14.08628704608092    6.95528838779897
H         1.55562814285413   14.34527399536103    7.66264904866469
C         2.42899183419335   14.53316698666324    4.65535792367249
H         3.38132052644709   14.84715407709982    5.06940123697102
H         1.73579364158770   15.36131086457027    4.75761037931882
H         2.56765411934664   14.35777427296104    3.59444428936957
C         0.99797198156240    8.23581275477238    5.94430514832692
H        -0.08938840657979    8.36390631439328    5.93127683644614
H         1.30338728200853    8.34424229721358    6.99139111046314
C         3.27511551136646    6.21284836607169    5.43594365141730
H         3.59639650658484    5.43791141918985    4.74798125767918
H         3.58258673032450    5.90418029910237    6.42980659140086
H         3.81594138118823    7.12432377409005    5.19171736488386
C         0.71548346571962    6.33402821564755    3.56627456027488
H         1.48624745332315    6.02050442337483    2.87110392710045
H         0.31769534154319    7.28696222551561    3.22254086879556
H        -0.08575681349445    5.60528084848689    3.50617949420324
C         0.56964324194475    5.08646846735024    6.39454369592900
H         0.82489215181898    4.10482731639271    6.00788093599225
H        -0.51241182683765    5.17099545507707    6.38608985289202
H         0.89129659595288    5.12288018387193    7.43052335800983
C         2.89404782343646    8.91388149064151    2.91161447757984
H         3.63769488096383    8.14286540642895    3.13620950168085
H         3.42689770049083    9.68339775431926    2.33777654744193
H         2.18832437281793    8.45347103533926    2.21323534719559

