65
CSD_code = FOGPOG | q = 0 | S = 0 | Stoichiometry = C24H33O5PSiW | MND = 6
W         1.69326231455242    6.18917422317336   10.22687293012656
P         0.87790407110002    3.94197238536522   11.07839786324061
Si        0.40624425456157    1.84781074172472   11.80187832629795
C        -0.10259714188328    3.54212615448457   12.39945995568950
C        -0.84872065121026    4.25230346585151   13.46704783200734
C        -1.93447760817397    3.35569932996894   14.06965440413685
H        -2.63946592487654    3.06139435226033   13.28855731813882
H        -1.47768118399801    2.44637559375261   14.46947696700759
C        -2.67294664132867    4.10901596108241   15.17598029761421
H        -3.44840885310185    3.46014179138635   15.59925618830979
C        -1.68735835728381    4.50774566269870   16.27329662641728
H        -1.23136039461219    3.61499429873244   16.70835268451342
H        -2.21434096006932    5.03594219370384   17.07068425064419
C        -0.60632732663456    5.40908911610149   15.67857626532538
H         0.10674344223379    5.69196281660495   16.46091041828472
C        -1.24761891906468    6.66604793907963   15.09383921371229
H        -1.76383770865328    7.22001230349204   15.88086318763071
H        -0.47613642219749    7.31602869013921   14.67651959495307
C        -2.23779610616176    6.26638394804881   14.00147381063810
H        -2.69994097478008    7.16515134113992   13.57902290984524
C        -1.49812886956697    5.51673688220370   12.89621238270708
H        -0.72293792427621    6.15406575168715   12.46213262773341
H        -2.19004467037731    5.23895691696087   12.09717997741273
C         0.13492799574815    4.65305926710166   14.57825073075737
H         0.60128490670884    3.75503813403875   14.99218577396498
H         0.92473089758801    5.27615129328604   14.15356776836467
C        -3.32062005523287    5.36463036395144   14.59308988914911
H        -3.86296605383818    5.89903302196607   15.37601821885901
H        -4.03865467676243    5.08801942351727   13.81759321957142
C        -0.76422287512541    0.91788517013641   10.58594421192838
C        -0.00439966488654    0.46193581301769    9.34049360875424
H         0.76068771541174   -0.27000687883474    9.58378106547389
H         0.47063648378020    1.31044646594879    8.85155998286675
H        -0.69309372552566    0.00364577709590    8.63121010001896
C        -1.40087796585298   -0.28893975077933   11.27290030700070
H        -0.64774295703742   -1.00952270550361   11.58432157391714
H        -2.08251879089028   -0.79355352650865   10.58882323611983
H        -1.96689925656359    0.01812193506318   12.14986534005314
C        -1.85953503049464    1.88882777121420   10.15549970853127
H        -1.42855863410300    2.76844635830768    9.67824472664286
H        -2.44585674428124    2.22104585645904   11.00860220321818
H        -2.53048843399164    1.40970900892001    9.44397912276559
C         1.86805665116271    0.97921649192211   12.71243933710510
C         2.92102062728930    2.03951453480816   13.02315920665868
H         2.50432131190387    2.83659245598444   13.63504217342534
H         3.30510090990711    2.48675027640134   12.10705213341642
H         3.75704935092393    1.59631401803924   13.56234296120414
C         2.50557165606022   -0.11601472385423   11.86004549202142
H         1.79816180489411   -0.91471027266757   11.64769919553376
H         3.35069511790698   -0.55474369791191   12.39024080024139
H         2.87171406313416    0.28793330220432   10.91886699819167
C         1.36569948125537    0.37165344771945   14.02286078874788
H         0.60969575365120   -0.38912397329208   13.84080170716482
H         0.93345078804392    1.13807301678211   14.66220994419646
H         2.19029288187527   -0.09347538995574   14.56213309383464
C        -0.17588228130834    6.83439655855347    9.91392042435129
O        -1.22692352102918    7.22948675183925    9.70244750575970
C         1.73256763498461    7.02563031620696   12.04155051019186
O         1.80811568461192    7.57979270458146   13.03984020279479
C         3.57046977384968    5.55821811015058   10.51301138961060
O         4.65299968735962    5.22257536323041   10.66378906783390
C         1.71134775648651    5.42927248969168    8.37447899244031
O         1.75138459321363    5.04935185471943    7.29716488077815
C         2.38336600480049    7.90184726567681    9.51480742049280
O         2.78816369018345    8.88964444118917    9.10221895368633

