50
CSD_code = FOGSUQ | q = 0 | S = 0 | Stoichiometry = C21H17Br2N3NiO5S | MND = 6
Ni        5.88084914730361   15.20861614839305    8.44226109882977
Br        1.36766888522369   14.14848383799194    8.51633202653074
Br        2.62302899979967    8.76709577338772    9.86976092705944
S         8.52476371616151   16.05089822769616    7.59159553032737
O         4.24939602066917   14.39075311139417    8.58725826394563
O         7.42725015662094   16.27007882284521    8.57864989400751
O         9.72969165070248   16.66129202692810    8.09196640605706
O         8.14015150486104   16.40712599149357    6.24494245158416
O         5.79857916021742   15.92949789945016   10.83806328633767
N         6.86788545608652   13.60667407951849    8.91948612832624
N         5.76444863486005   14.81510778377575    6.09338884401858
N         5.00286247564198   16.80278039118910    7.80279763931294
C         3.98123133424056   13.18390084086820    8.86748870714598
C         2.61328202807950   12.78136780028087    8.90505153053181
C         2.20577440876099   11.51062437272521    9.19498901996249
H         1.15714540511205   11.25608675262115    9.21185899747904
C         3.17911760741752   10.54308735158138    9.46737217458087
C         4.51293496877056   10.85505851107771    9.44630842279941
H         5.24967990394820   10.09450769336777    9.65910271469677
C         4.93928258840751   12.16206163589838    9.15309769295434
C         6.33223009685534   12.45581455320278    9.13829952471713
H         6.98758091893953   11.60338629926248    9.34402505606072
C         8.31423095716097   13.69274738445900    8.92516531140219
H         8.74966440638558   12.70244110819770    9.13238795990414
H         8.63163523152649   14.38785499942474    9.71139874804389
C         8.83297392483754   14.24488699028378    7.61260124631728
H         8.33850753375832   13.81379988534889    6.74846132656215
H         9.90939983330806   14.13904179859128    7.53282637398200
C         6.13778663236563   13.85895171515095    5.27552904918550
H         6.23801290119869   12.86990091291533    5.70833160789668
C         6.39135195708167   14.06038294885590    3.91511369664214
H         6.71686555746713   13.23671740501788    3.29866435704418
C         6.22019117748960   15.31816772826980    3.39270958983908
H         6.40794676411919   15.52064443277277    2.34792554088255
C         5.78998220844197   16.35627992662869    4.23381386291357
C         5.56387769642127   17.68171162313505    3.76724201997553
H         5.74548756654509   17.89299488081129    2.72350876867290
C         5.13295194227475   18.65148693949176    4.60715025091668
H         4.95603116279975   19.65593786319379    4.25143966273876
C         4.91071176592985   18.38268585468123    5.98846110798791
C         4.45599915774161   19.36255625611622    6.88524973853433
H         4.26479289621782   20.36389280401229    6.52734075070499
C         4.25597112617742   19.02632780387741    8.20155687654826
H         3.88988702398660   19.74858920125642    8.91383280630671
C         4.54904849859349   17.72710116484910    8.62406306590978
H         4.40725601523454   17.43153197296812    9.65586105003798
C         5.16134095447506   17.08874325551929    6.49769141873553
C         5.59060450181278   16.05134399991370    5.59747354962141
H         6.55676484874717   16.48666042488960   10.61456899883665
H         6.13539068924341   15.17691881443256   11.33243492664464

