41
CSD_code = FOGVII | q = 0 | S = 0 | Stoichiometry = C17H16FN3O3Pt | MND = 4
C         5.60202495231202    3.13490193931873    2.19937170254802
C         6.63137892943304    4.22214445923053    2.42020106429375
H         6.48602789956771    5.01548003490778    1.68779125205870
H         7.62864224803245    3.81514833995542    2.26426180361018
H         6.55740454200340    4.61926654616466    3.43259477909686
C         6.86109226981629    2.94538746993738   -0.37256638513769
C         7.91397218936902    1.84764098050361   -0.29684284442413
H         7.46824738202546    0.89067504470084   -0.57445713947371
H         8.27013937636636    1.76418589139493    0.72828113600071
H         8.75356615740303    2.07260126188304   -0.95390354049764
C         2.44876811374323    1.21787874716431   -0.06800642821801
H         1.53340400961696    0.64995933501613    0.04396710597625
C         2.96977868421306    1.42301049469134   -1.40251289167303
C         2.21984918232703    1.07108870007650   -2.52726136616633
H         1.23990162437905    0.63844922893330   -2.39919206338089
C         2.74699290946789    1.29414206528767   -3.78448022180577
H         2.18587026858410    1.03330616827990   -4.66906294476721
C         4.00928244113566    1.86357657267055   -3.88734827428970
H         4.45477314947919    2.06184886565817   -4.84856211015151
C         4.69810452691141    2.17179359229688   -2.72501063296534
H         5.68385930625661    2.61518845248779   -2.76731090785604
C         1.65286927084446    0.94068464564454    2.73779977366138
C         1.59133052974603    0.95522361348470    4.22556227108256
C         2.69265349973062    1.16167977413346    5.05572915335914
H         3.68056956672767    1.32905572886144    4.65762174716947
C         2.53539640666986    1.13813492425089    6.42926411488404
H         3.37485325463202    1.29377867281588    7.08799769996351
C         1.27873970388493    0.91063345507203    6.96316412836172
C         0.17128615450117    0.69340104738758    6.16188948985102
H        -0.79255072622463    0.51359403359675    6.61065749252291
C         0.33986942869659    0.71184582295849    4.79254649543523
H        -0.49763041336637    0.53955394586712    4.13356989442776
F         1.13100372630104    0.89437993783600    8.30110470524649
N         3.09229902793727    1.72363051645689    0.92532502241831
N         4.20037321138103    1.95253584064169   -1.51640343240290
N         2.74754694063798    1.57470807121396    2.20932508368403
H         3.46479614586194    2.00944830324215    2.82169396401658
O         4.96228565338478    2.73432727331649    3.17394156536243
O         7.05725936260291    3.96471573946895   -0.99711684251656
O         0.78022658631356    0.43092626932510    2.05917582006955
Pt        5.09074250718420    2.50846819334272    0.38430076095350

