49
CSD_code = FOGYAD | q = 1 | S = 0 | Stoichiometry = C20H24AuClN2P(1+) | MND = 2
Au        9.19666241780344    5.38655119848627    1.16148715017668
Cl       10.65120412201846    6.90534631827191    0.35194931765057
P         7.82132642784600    3.86291341022007    2.08282339248738
N         8.66125115912204    1.11070116364856    1.80600457732865
N         9.77201503624317    2.27988594269753    3.26632222455030
C         7.12467655744547    4.24519428606636    3.71094294484931
C         6.79974912942984    3.27207066432560    4.65499489491571
H         6.98866247217292    2.22537775910824    4.45224828323658
C         6.23604211234808    3.65656954582699    5.85744629473219
H         5.98191934825825    2.90753734675460    6.59174511485861
C         5.99594118620132    4.99725948482409    6.12030187263343
H         5.55637013257376    5.28746660050797    7.06156913265894
C         6.32096940321193    5.96422915550524    5.18181474964938
H         6.13750920645111    7.00670426509613    5.38933794443940
C         6.88807113254162    5.59170235726229    3.97651250137848
H         7.15838502746046    6.33487349921853    3.23671659654119
C         6.37940253876663    3.42752614261347    1.07732457681264
C         6.44832850433003    3.72290696933769   -0.28432362205321
H         7.35619065669632    4.15012012651460   -0.69260166521423
C         5.35468619144436    3.48524118337948   -1.09666608643356
H         5.40701052573162    3.71712088768793   -2.14898186842301
C         4.18917573481281    2.96839029506393   -0.55202796600976
H         3.33220198899656    2.79422498622247   -1.18364181643343
C         4.11301549021029    2.69290889605075    0.80554200809865
H         3.19796133263220    2.30734810663611    1.22821473612874
C         5.20087861073125    2.92477628060604    1.62746298305682
H         5.13181281746093    2.72932052392040    2.68829636937826
C         8.72503963435886    2.30919733846271    2.41912213852712
C        10.35064919366777    1.05267458831185    3.20628670505123
H        11.19602189007384    0.78559925712662    3.80706753595233
C         9.65661470067899    0.32173184828399    2.29389007968595
H         9.80112154890535   -0.68772347332998    1.96643544018762
C         7.72761777174110    0.68311768289159    0.79688120003333
H         6.70697457552236    0.69594448564283    1.18047327517635
H         7.97913718142190   -0.33257701104579    0.49771411260957
H         7.78180304176175    1.33309134375696   -0.07703057204723
C        10.29020452454679    3.37345287716104    4.05516679973174
H        10.47826401608165    3.00861504770574    5.06883137670667
H         9.53613639277912    4.16127201119658    4.09885272159271
C        11.58738313784224    3.92785754700500    3.45565305474832
H        11.39609426768037    4.28825659072462    2.44099122470192
H        12.32864228503506    3.12838117210058    3.39959209982033
C        12.14477182202692    5.07978918676189    4.29324118754102
H        12.27489080785237    4.75027264124744    5.32646116179036
H        13.12968393185101    5.32879108059041    3.89776615920963
C        11.27712760917858    6.33134346075085    4.25167022501615
H        11.77720321733264    7.14036218573942    4.77607791304365
H        10.31176649832497    6.17276973317075    4.72972704457224
H        11.11543268838710    6.64751300988728    3.22371447535095

