49
CSD_code = FOGZAC | q = 0 | S = 0 | Stoichiometry = C14H29N5W | MND = 5
W        -1.07013777337501   -0.80541571619239    3.40512954771064
N        -0.27937532170714   -1.37679992348466    1.66449945056905
N         0.72194637093496   -1.21466485289955    4.19578690125409
N        -1.06982780571175    0.99760539867828    3.40486726282538
C        -0.60918936450437   -2.56718332008055    0.91259604451051
C         0.77893279475160   -0.63618786305437    1.00890211367907
C         1.62706520211950   -2.30833577092333    3.91551727259967
C         1.20808848545034   -0.45920909128140    5.33483794770588
C        -1.07027161517382    2.33869661609658    3.40513631228188
C        -0.90254567789016    3.07203655720018    2.21043781911259
C        -0.90530139062368    4.44928115363994    2.21946059770967
C        -1.07128731663409    5.14926208450690    3.40574987716033
H        -0.77200733661935    2.51780533740493    1.28938799822595
H        -0.77629365092526    4.99012526532567    1.29168099916603
H        -1.07175117675926    6.22907498811700    3.40597583192201
H        -1.37269017897448   -3.14911767855473    1.44354909914960
H         0.27306941058399   -3.21550658566718    0.76201837974928
H        -0.99098000132481   -2.31722977462681   -0.09299229852248
H         1.05949005762873    0.22014830347216    1.63033533117821
H         0.45144444673823   -0.26811483844896    0.02237282394159
H         1.67175046534188   -1.26314071625275    0.84088603357888
H         1.24503494454258   -2.91713555625816    3.09012316221067
H         1.75873835960617   -2.96477427727990    4.79461690411196
H         2.63057179980229   -1.93904915007512    3.64366378235102
H         0.50411168927785    0.34511684201569    5.56883931798113
H         2.19160426635580   -0.01302254672051    5.11660336002369
H         1.33212926895708   -1.10042203241190    6.22489804758206
N        -1.86114478789394   -1.37626126867768    5.14581572506204
N        -2.86238203460926   -1.21421171246500    2.61453428719350
C        -1.23848595763118    3.07139878789709    4.60016338148619
C        -1.23671937529880    4.44865005836403    4.59174981219494
C        -1.53161920088250   -2.56639425293043    5.89824184594736
C        -2.91943461835896   -0.63524372426720    5.80099465006144
C        -3.76793105177271   -2.30747865743565    2.89493998343035
C        -3.34816724715172   -0.45892400312900    1.47522860162754
H        -1.36863016450331    2.51665820333829    5.52096906919620
H        -1.36624191393548    4.98900239931859    5.51974724732854
H        -0.76811914696112   -3.14862020049465    5.36762618059996
H        -2.41400357099611   -3.21454717587888    6.04885182633102
H        -1.14992384470783   -2.31607593244684    6.90378381276899
H        -3.19978802659356    0.22088973544205    5.17919199523566
H        -2.59198327291641   -0.26680443226236    6.78739983561210
H        -3.81236957988543   -1.26200035094008    5.96914799236160
H        -3.38620888192925   -2.91613383048443    3.72056019951210
H        -3.89970246516343   -2.96414791376731    2.01600629090080
H        -4.77133790403513   -1.93774959593280    3.16659321886488
H        -2.64388115497178    0.34505878092982    1.24108328708414
H        -4.33155419667328   -0.01228942436417    1.69318608162376
H        -3.47229055499484   -1.10031834205654    0.58530475580886

