105
CSD_code = FOHDIR | q = 1 | S = 0 | Stoichiometry = C51H48IMoP4(1+) | MND = 10
I        -0.52016044131150    3.94126466680442    6.93248202604477
Mo        1.99570242511206    5.06859089178743    7.63232763348736
P         2.51398116799868    2.79013797150706    8.37525455286910
P         4.33141109461752    5.11714740033736    7.16361269949077
P         1.90130214956180    6.21464036978512    5.48750401933046
P         0.92259450193131    3.62618853533686    2.00318306420773
C         4.35706379644954    2.61282783832660    8.33918753071357
C         5.02280537831592    3.41110077720070    7.22348596650922
C         4.62815673679843    5.65443963262571    5.46381776557455
C         5.89683987948006    5.58604675620000    4.89249416736229
C         6.11272044869319    6.11484560509753    3.63377888665252
C         5.07484147193825    6.74031738553284    2.95563664163761
C         3.81434436794491    6.81257651914229    3.51969325208868
C         3.57711521722963    6.25892084868766    4.77608360741784
C         1.00916333300301    5.45453965048027    4.07673178217104
C         1.58796989355608    4.10035030763240    3.69277001036112
C         1.94635544130785    1.41855451797193    7.31874213541347
C         2.39694029498444    1.33813495245319    6.00148519660682
C         1.95182271066773    0.32923438002005    5.16842112914141
C         1.03757262330407   -0.60276617238119    5.63255863503378
C         0.58344757210538   -0.52807482391389    6.93740415287114
C         1.03581204907739    0.47191349448665    7.78022386733738
C         2.06461650857298    2.19895081689614   10.02977694871410
C         2.94848409520983    1.56428609435212   10.89600890798206
C         2.50349996181271    1.11589006095360   12.12879620896243
C         1.18148201194123    1.28378816814486   12.50350094814033
C         0.29117223382558    1.89962170792752   11.63725073298377
C         0.72908786897090    2.35571447318511   10.40875153932486
C         5.54808190090470    6.13478737992046    8.03999133236452
C         6.26412467745108    5.65008804690231    9.13125380922450
C         7.15535707832713    6.47309555346092    9.79600399126072
C         7.33248798351233    7.78449065158479    9.38602091237925
C         6.61714992477366    8.27475655876281    8.30512731928510
C         5.72716719169509    7.45603608278433    7.63621001671009
C         1.34898387118231    7.93236947230181    5.40498997798053
C         2.24872874472035    8.98992431878098    5.48832665697386
C         1.78470832871203   10.29274049556894    5.46517381061913
C         0.42551623038920   10.54461027835644    5.36951693321243
C        -0.47483298537947    9.49233764435737    5.30013517953300
C        -0.01907324509801    8.18725328630168    5.32294905412300
C        -0.77699478803335    3.20354372589229    2.54310737008054
C        -1.04322957037971    2.26291305911202    3.53355555645100
C        -2.34645033740418    2.02244063329534    3.92353729657167
C        -3.39183987654265    2.71039703120553    3.32781790169158
C        -3.13374007947000    3.64053984717991    2.33570394055033
C        -1.82931060557647    3.88753737154131    1.94546616933410
C         1.67899662463862    1.96487939033947    1.86570299806204
C         0.92396976891155    0.86437006454785    1.47116643407307
C         1.52840225968154   -0.36436607220712    1.27563456488498
C         2.89514441478691   -0.50622809725240    1.45073711115504
C         3.65989099366177    0.59333785403283    1.80667578647055
C         3.05795198831594    1.82313336006046    2.00235817521663
C         2.43284809783467    7.05269381049613    8.54409037829161
C         1.01793729705502    6.99724464856600    8.40996824551499
C         0.53614304004994    6.00658008712528    9.28950675238501
C         1.62814498241274    5.41985794647284    9.94446833286145
C         2.80770247843596    6.05892225647383    9.49816776217635
H         4.70127274620162    2.98979724774483    9.30928722517786
H         4.61586377872092    1.55054093312778    8.26332654447622
H         4.83093752451234    2.95769755171293    6.24487747274284
H         6.10810294139701    3.45080405246860    7.36992712829317
H         6.70704535316847    5.12391556386087    5.44058195617839
H         7.09192075639257    6.05357779228771    3.18453706775938
H         5.25081295100747    7.17097501908334    1.98200945339118
H         3.01311513358406    7.30707238326998    2.98854694024907
H        -0.04999841444067    5.35160466805294    4.32829092472986
H         1.09035732471676    6.15578343109455    3.23639013585167
H         1.31653222482275    3.33172224971854    4.42100373831826
H         2.67926782820813    4.15874394312334    3.62280270330669
H         3.08828487845929    2.07377360573590    5.61045445929257
H         2.31215725012045    0.27710198390170    4.15241970032526
H         0.67965622018489   -1.37839621976339    4.97358459969143
H        -0.13109690983190   -1.24781328349793    7.30581109227243
H         0.66684641558821    0.51372273851327    8.79360438411829
H         3.97987688498859    1.40275790921933   10.62297617489808
H         3.19638692762901    0.62680846442954   12.79652925113334
H         0.84352452289823    0.93006903844498   13.46503830314682
H        -0.74415534948870    2.02199055206139   11.91647192936455
H         0.02936109125310    2.82785848056118    9.73059343408407
H         6.13243271713167    4.63031324419417    9.46579252406307
H         7.71248691141943    6.08904637942104   10.63708291395514
H         8.02833198978717    8.42293485834277    9.90735055403159
H         6.75518791470170    9.29534437420431    7.98196738142573
H         5.17805991499650    7.83464981021175    6.78367657925849
H         3.31084318120872    8.79205976895673    5.55473073350985
H         2.48479306977622   11.11273010815902    5.52070364839718
H         0.06732377373640   11.56217188357954    5.35066973254391
H        -1.53370633030780    9.68895767432618    5.22961239650341
H        -0.72093900521784    7.36445242556011    5.28365852356235
H        -0.23690956926573    1.71151306815134    3.99776414681896
H        -2.54502091336366    1.30088976640876    4.70105786960516
H        -4.40771466090159    2.51868962386590    3.63767510631885
H        -3.94693498560135    4.17404068393286    1.86642627848472
H        -1.61685775035410    4.61160480057056    1.17058194355419
H        -0.14040979810922    0.97204703933896    1.31931493944991
H         0.93094516819147   -1.21322990313311    0.97808329105666
H         3.36589340964333   -1.46560203375782    1.29763003275201
H         4.72956536603621    0.49281439372185    1.92361623787466
H         3.66692916732035    2.68118395906093    2.25538543336132
H         3.05813446320672    7.87057011787491    8.21266583923784
H         0.40020826081628    7.72800783087487    7.90484365280047
H        -0.50665597332588    5.80443131795620    9.49615663790696
H         1.56806929082860    4.72743193330646   10.77277591229207
H         3.76900166937985    5.98717845150873    9.98857638280594
H         2.35025945548413    4.10539080567460    6.40460891178804

