54
CSD_code = FOHFIT | q = 1 | S = 0 | Stoichiometry = C22H27FeN2O2(1+) | MND = 8
Fe       12.55733913495629    4.10098565387235   14.95956061681348
N        10.93905394832162    1.61692310842486   14.74567130516680
N        13.05820532611080    1.21658435471783   14.47167702952518
O        14.14861284490488    4.51628132590020   12.58921203122676
O        10.57857465119508    5.22146820070457   13.18360790330371
C        12.14786929722623    2.19726667235566   14.62307711584535
C        11.06535080205516    0.24399758494021   14.66743104138905
C        10.14045191247411   -0.78846162199587   14.75329271981288
H         9.08861886276313   -0.60069780788426   14.89281565346681
C        10.62808316226863   -2.07587711908796   14.65594187023212
H         9.94245261929554   -2.90584471675892   14.71666133725041
C        11.98956401726166   -2.33336504174915   14.48449629445495
H        12.32408426832365   -3.35621767040529   14.41745078111711
C        12.91567140161399   -1.31341576061974   14.40226852957741
H        13.96506720384573   -1.52347927341688   14.27667333597387
C        12.43229906514649   -0.01439936172789   14.49269205518658
C        14.47803244590821    1.36719451010158   14.26010609874357
H        14.99849254832131    0.64121675129841   14.89089408909397
H        14.76433640906487    2.37405816888841   14.56966563686104
C        14.85429130943505    1.13745326123543   12.79314187695895
H        14.47015573285014    0.16633543701468   12.47573943328546
H        14.37651911452492    1.89970339174765   12.17535228941072
C        16.36722016074319    1.17156398851832   12.57377855354881
H        16.56435186104772    0.88731476145549   11.53947191464768
H        16.84429804289573    0.42823386932064   13.21558464624452
C        16.98558616430379    2.54028213336347   12.83217166737065
H        18.03633479557243    2.52757111414489   12.55680371976273
H        16.92012211703507    2.81633676400238   13.88207883707609
H        16.48935423099563    3.30278433885698   12.23725052636946
C         9.66252957871641    2.27885077214323   14.86474835965451
H         9.83368100645188    3.29991657994264   15.21548575201103
H         9.06675870491123    1.74904778640173   15.61254745091328
C         8.91906987813737    2.30483462032466   13.52678728185982
H         9.56088988419110    2.76072082301136   12.76993981622151
H         8.70509268881157    1.28399186794057   13.20587605358965
C         7.61359450773654    3.09058407711149   13.63134584617971
H         7.83115331779383    4.11250117830208   13.94842243573903
H         6.97517470136611    2.63451970765529   14.39045493447605
C         6.87645599717580    3.12103639364398   12.29880114727485
H         5.95081319267150    3.68149747069552   12.39236702036210
H         6.63449711927217    2.11326568432763   11.97049861469789
H         7.48790295831806    3.59434039288732   11.53459319603877
C        11.90087191941438    5.29421219234975   16.70891026613749
H        11.00575029435599    5.88453432257409   16.81326661437111
C        13.15414761829697    5.76776011816100   16.24059101485073
H        13.37990498168194    6.78711658053857   15.97640541088520
C        14.10855382401478    4.73140726591155   16.42241705244782
H        15.17177401583711    4.82572157954178   16.27646163115641
C        13.43595591109322    3.60563156495593   16.92931060962745
H        13.89521473719139    2.69246089320143   17.27091524390518
C        12.06145234881097    3.95235435092121   17.10180668323691
H        11.32530886991745    3.34684915197142   17.60427393978462
C        13.55396756885199    4.29695370270699   13.53417544628419
C        11.31339092451902    4.73029390555865   13.90012926857603

