39
CSD_code = FOHJIX | q = 0 | S = 0 | Stoichiometry = C16H17N3O2Pt | MND = 4
C         1.85560986550265   -6.17346533423287    6.22639892108352
C         2.47611634233551   -5.34434256688155    5.11669774772155
H         3.53006292630834   -5.59419838000530    4.99512075956187
H         2.35811784446924   -4.28428566186760    5.34330270694726
H         1.95058426976929   -5.53813916582950    4.18353596149478
C        -0.65305133512438   -5.11684714495532    5.35116307168116
C        -1.23415157911811   -6.27448904512032    4.54870247057907
H        -1.92077951432506   -5.90756306152961    3.78615040406494
H        -1.74995504686420   -6.96614479398255    5.21746295417445
H        -0.42147566575802   -6.81771119092436    4.06991670022281
C        -0.35016508179976   -6.20707252554306    9.92350999874085
C        -1.37997961501347   -5.23428680335766    9.59682449903790
C        -2.27751096058629   -4.74969495417567   10.55433816408427
H        -2.21902069489799   -5.10576333255540   11.57114628320824
C        -3.21356307025545   -3.80594938862847   10.18431517507337
H        -3.91348792076988   -3.41832703753714   10.90960786474619
C        -3.23216997654754   -3.35429796105726    8.87020107882505
H        -3.94123499687557   -2.61049775573269    8.54525915841576
C        -2.31550443467991   -3.88179093834002    7.97769186673293
H        -2.29150855929355   -3.55791231505377    6.94529294524114
C        -0.47499187209421   -7.01272363032675   11.15611342184441
C         0.56923378038939   -7.07407582980085   12.07747500800659
H         1.47011824444102   -6.50296853008207   11.90343576077354
C         0.44361150353663   -7.83563063977240   13.22552833889978
H         1.25677600835619   -7.87103853598696   13.93517660100496
C        -0.71897192003100   -8.54845331394588   13.46478264090653
H        -0.81391266191537   -9.14461546529275   14.35986014049490
C        -1.76151015464689   -8.49377395518350   12.55339995422885
H        -2.66951381872135   -9.04902783891432   12.73652584711478
C        -1.64303764732374   -7.73133540413156   11.40693073372021
H        -2.45239224069545   -7.69592242563468   10.69145224758592
N         0.64544575123407   -6.31285968681737    9.08966935129445
N        -1.42464709650736   -4.80077237373886    8.32411383519258
N         1.63854671282394   -7.16913552341718    9.27137380987242
H         2.16883977231233   -7.34239013155219    8.40708531213737
H         1.49801293617061   -7.94780915950694    9.91001478564839
O         2.49364529015101   -7.11497034656675    6.69024338113064
O        -0.82712157018195   -3.96724621874704    5.00681162930638
Pt        0.17443618613987   -5.56967163304321    7.08726846919833

