32
CSD_code = FOHJET | q = 0 | S = 0 | Stoichiometry = C11H15N3O2Pt | MND = 4
C         0.57193771076297    4.12039793371657    2.96156635106580
C        -0.06515808923248    3.30435725978231    1.85147892374174
H        -0.25142414327971    3.94530319870470    0.99187677345153
H        -1.00607080216816    2.86834931615704    2.18734328779583
H         0.62527994831361    2.52328221300629    1.53203570046888
C         2.41869782463473    5.02750770563150    0.97711981828529
C         1.88534045631757    6.41590995459562    0.64400561531510
H         2.16614013180167    6.70309146901513   -0.36899960014150
H         2.27155157497303    7.14262233299646    1.36141376340648
H         0.80011597565904    6.40866895094771    0.72800845974742
C         4.05211959480869    4.86692301846650    5.40681547442760
C         5.07944499033130    4.76460631358575    4.38194071784693
C         6.44419249635856    4.68823560273923    4.67795323569199
H         6.78120990608059    4.69737299892008    5.70203107080899
C         7.35583648475167    4.56384713887683    3.64862385788053
H         8.41239889673249    4.49810585127624    3.86237592266108
C         6.89321597752985    4.51076613072358    2.34064004252664
H         7.57268373495876    4.40684195240666    1.51061525199248
C         5.52878836257899    4.59174682843596    2.12198439816344
H         5.12213578989441    4.54889890060847    1.11996938394746
C         4.37931474598361    5.37135158802134    6.78564684315042
H         3.62767085482463    6.09413831437857    7.11012619645758
H         5.34247121772688    5.87100670532393    6.80138793125238
H         4.39231020505499    4.55232249555171    7.50654428205946
N         2.85976065576890    4.48763396252206    5.06309651884941
N         4.65080488396231    4.72448115337913    3.10595862947631
N         1.84083885853554    4.46541544817542    5.90962780438736
H         0.93592497993223    4.40715448418143    5.42618147393116
H         1.88413794137483    5.02811253055518    6.75320016195824
O        -0.08151902197631    4.35280379684860    3.97551115246223
O         2.90348363860900    4.32128796692901    0.11863014604536
Pt        2.50436421851820    4.56035648353681    2.89399041089066

