40
CSD_code = FOHKUK | q = 1 | S = 0 | Stoichiometry = C18H17FeN2O2(1+) | MND = 8
Fe        3.52929971297192    2.15313304779469    9.39032870589415
C         4.22643995210355    0.54701346426513    9.33143905013226
O         4.70550875195082   -0.47994912167294    9.23234646193892
C         3.84601597819415    2.16373420934246    7.66274891867617
O         4.18349279882883    2.16942645044154    6.57747515007179
C         4.17898843913035    4.25969471470932    9.59239381288647
H         4.41704295154441    4.96051048735193    8.80928751314733
C         5.10512860100078    3.40779453482546   10.24954994216584
H         6.16799666914674    3.38641737883515   10.07725333476849
C         4.43073592866480    2.77916329134643   11.32906756391355
H         4.89335725129086    2.17077613452189   12.08826479404431
C         3.08434845773777    3.18562004668326   11.29621274977854
H         2.33850487983552    2.97007580744431   12.04369055341814
C         2.92430005905355    4.10034260529194   10.21170884204952
H         2.04474800636201    4.69285355334866   10.02153632642357
C         1.68432645928547    1.44228363311690    9.28698707751611
N         1.12697462438257    0.53009927302898   10.10746728546110
C        -0.19601725480142    0.36666412678741    9.80057675530138
H        -0.82964827384110   -0.31367041704157   10.33055529464611
C        -0.46639829603845    1.19908480087375    8.76837588525416
H        -1.37545482194650    1.37157832926201    8.23090684978274
N         0.69546166148101    1.85554553444716    8.47355339492309
C         1.77840423479369   -0.21150877253355   11.15448429618013
H         1.93645506610446   -1.24581150077068   10.84473681947149
H         1.15584183212297   -0.20990005835957   12.04875401036967
H         2.74155368098815    0.23973569462310   11.38453058794958
C         0.81252879446402    2.76502015901532    7.36138209536888
H         1.72761571459679    3.35269363257761    7.49398063610487
H        -0.04178628163234    3.44707228141878    7.37149597500779
C         0.85798958307749    2.02533562872112    6.04076308804542
C         1.47628719427790    0.78577122479361    5.94120395335499
H         1.92426719683720    0.33083024465708    6.81706825100518
C         1.52564228990631    0.12743890155402    4.72512418870174
H         2.00735727537567   -0.83564628450277    4.65809549976233
C         0.96142389665069    0.70345289469700    3.59950626325371
H         1.00168823698901    0.18944113325108    2.65218693732012
C         0.34530957026070    1.93954277320585    3.69363031032593
H        -0.09685383350508    2.39302453871824    2.82040981268237
C         0.29016207368871    2.59664768183257    4.91039469909894
H        -0.19273906134283    3.56016794209149    4.98072631379716

