98
CSD_code = FOHMEW | q = 1 | S = 0 | Stoichiometry = C47H42N3O2P2RuS(1+) | MND = 6
C        14.74384226719830    1.61998089641427   11.72541512580318
C        15.81681927476863    1.34837110817684   12.57311911466229
H        15.62042018492455    1.06772608334500   13.60234263363701
C        17.11365182249381    1.42989715753025   12.10293584578912
H        17.94061789360349    1.22034201103660   12.76405590149845
C        17.34837413026625    1.77898261397384   10.78157720314375
H        18.36033867157335    1.84821946196707   10.41313178543058
C        16.28428483939918    2.02679032712775    9.93002706278485
H        16.46654014751831    2.27833767153165    8.89594953463119
C        14.98235752488173    1.94462712487531   10.39419428925921
H        14.15699188129091    2.11833742270110    9.71823087425704
C        12.83358095631278   -0.35437375213902   12.38206770757469
C        13.47333425597943   -1.11942145599469   11.41001272224077
H        14.14439406247309   -0.65083328155906   10.70424503186517
C        13.25395394414379   -2.48362997353231   11.35353440852990
H        13.75448712348175   -3.07453507355699   10.60145393849783
C        12.39850313812099   -3.09098102294977   12.25863208025954
H        12.23466464216648   -4.15677868347348   12.21336171126934
C        11.75383877856691   -2.33068429666901   13.22092711009558
H        11.08470743527857   -2.80315878770009   13.92423807480257
C        11.96829568894772   -0.96573526268581   13.28630724933159
H        11.45880133467145   -0.36491609825062   14.02953403741277
C        11.91865853326549    2.09268626669243   11.23761491983724
C        12.12240589373526    3.36064014381779   10.69380754184551
H        13.03692039102743    3.89900240164832   10.91753266107209
C        11.17216569638000    3.92087781648350    9.86074349390353
H        11.34126438632861    4.89685600014618    9.42872682792330
C        10.00136553791571    3.23327261826256    9.58346006140109
H         9.25677605742392    3.67577181643442    8.93991963227163
C         9.78844269059618    1.97909036695865   10.13089523238799
H         8.87570110754458    1.44442016240496    9.91758588854976
C        10.74069216068527    1.40794102224624   10.95560129550674
H        10.57287620279137    0.43022999382757   11.38448342861320
C        13.19372297003058    3.16453325895670   18.07778118728633
C        14.43736417138794    2.55318140713821   17.97612554066426
H        14.78821503082314    2.19747134948925   17.01512524514781
C        15.23042416321892    2.40828185442330   19.10152383448601
H        16.19520352160488    1.93148657511609   19.01861545333119
C        14.78602275475157    2.87094738132870   20.32839842840879
H        15.40400421449605    2.75419190968026   21.20540236622813
C        13.54625699921570    3.48376494919807   20.43260656444064
H        13.19977827687386    3.84487010751787   21.38907902249140
C        12.74969902597533    3.63071289863289   19.31381765872727
H        11.78100954893751    4.10396544155651   19.39362246983442
C        11.97230081115548    5.17676697623742   16.49703406144916
C        13.08168858898112    5.96806471104889   16.78911146932139
H        13.96621924924687    5.51118247385246   17.21291887977549
C        13.04713765710986    7.32915430316407   16.54497318013129
H        13.90600349772563    7.93866791240421   16.78296705859687
C        11.91196389051017    7.90953062179030   16.00076081802814
H        11.88393932440246    8.97287578592625   15.81654128027518
C        10.80968883143181    7.12510583715292   15.69705340898454
H         9.92369397180051    7.57606477244180   15.27473936424492
C        10.83897295711625    5.76237434204286   15.93378485788906
H         9.98291974937602    5.14885778328248   15.68452534358553
C        10.52960838446915    2.76089309319834   17.26617502595888
C        10.32226933402956    1.38609507166513   17.16935272205761
H        11.08364058989349    0.76716665573625   16.70899872847217
C         9.15426515713174    0.82587033275454   17.64978065330721
H         8.99410005247485   -0.23877100095748   17.56986915142050
C         8.18989942437090    1.63105352859262   18.23519167247670
H         7.27403232034434    1.19579989746011   18.60479501521881
C         8.40368475255628    2.99409990647614   18.35465193074083
H         7.65922182848668    3.61944348294034   18.82432624028640
C         9.57098739316420    3.56331482279387   17.87646987423818
H         9.72983268708389    4.62757391170241   17.98247170365141
C         9.79288688032539    2.33267926051396   13.84223698166371
C         8.54067216141705    1.65899627973145   13.83230889687106
H         8.51745134505408    0.67420950069374   14.27371898086075
C         7.42074534741015    2.22065399916494   13.29166019970436
H         6.48888652823054    1.67571543653869   13.30135881684938
C         7.46814298751022    3.50083250989238   12.72194693344790
H         6.57894925143832    3.93539046479195   12.29444801285556
C         8.64757623525915    4.18694087817217   12.71881030815831
H         8.69589412281358    5.17625154720152   12.28515398281537
C         9.83209460064012    3.64591079459210   13.27038656352256
C        10.99075653915513    4.45188775704020   13.20983917109388
H        10.85917717558775    5.43295812276830   12.74419524282465
C        14.39979690338452    4.98700541640333   13.92672785600702
C        16.66382099218180    5.91562030155634   14.05467383294083
H        17.02848352760694    6.92178992982967   14.26652745016698
H        16.78160398958692    5.29799584374424   14.94664171583519
C        17.43205060907222    5.30038676923045   12.88992648592999
H        18.48647513304749    5.24300099393111   13.14000117941936
H        17.32277084935872    5.90355947423250   11.99158310186255
H        17.06935636017628    4.29534139848533   12.68727300040969
C        13.34079179305496    0.87000515431646   15.37548102301026
N        12.17582768277664    4.16065832501273   13.65380858346743
N        13.13901706211234    5.12053996994522   13.47692281227603
H        12.83312600264542    6.00587281786042   13.07053784163238
N        15.24413261083041    6.01712793751844   13.77529766408825
H        14.95402310994428    6.79833544952853   13.20444262481957
O        10.78206547332937    1.70472661462564   14.35676932656859
O        13.75782095744403   -0.08698162641073   15.84124869545667
P        13.09082577576935    1.44261553234185   12.46150699978066
P        12.11405317661934    3.37013377284026   16.62751073791343
S        14.88272628164287    3.55933432521419   14.68241615962557
Ru       12.74365874829433    2.42365989479283   14.57128418085754

