93
CSD_code = FOHNOI | q = 0 | S = 0 | Stoichiometry = C40H46O4P2Pd | MND = 4
Pd        4.82524733995802    1.85870842524366   16.46466642398199
P         3.01358313826374    3.09537644977894   16.02541590742646
P         4.98132087856901    0.66953198637230   14.59539585492896
O         4.65223533828438    2.44285584127653   18.43376010121179
O         2.59214297098051    1.74011423549963   18.02748719488284
O         6.55394411666721    0.86027663927348   16.98288287174804
O         7.12072348002941    2.91102195306762   16.38734015227360
C         1.35936194558741    2.50395329522184   15.48301527925121
H         0.98537594749014    1.82121043307281   16.24491155385001
H         0.71017039830695    3.38024047622575   15.43694561361963
C         3.56504148496294    0.55665304903261   13.40740776068145
H         3.58386089846704    1.42093105501563   12.74140166872916
H         3.71949220673172   -0.33519098978875   12.79654547537667
C         1.46126289412162    1.83038257999544   14.11255857699743
H         2.00706006452073    2.52156019868956   13.45934620121709
C         2.25021000215244    0.50029884670668   14.20765043071926
H         2.51766322876661    0.35431412444868   15.26777735838304
C         0.09315508108669    1.59072873013072   13.44037305879995
C         1.32459953553784   -0.67280965832345   13.82349684871533
C         0.36998507772772    0.88180461451881   12.10626980315755
H         1.10065770206431    1.46357966499048   11.54092880384754
H        -0.54543863561539    0.84702548282783   11.51341178200935
C         0.89068194764855   -0.53689441012817   12.36096227759777
H         0.10781916967112   -1.27116240934033   12.16296790279810
H         1.72201669540999   -0.76506717205968   11.69296355410643
C        -0.75812854341832    0.66094439873362   14.30710440416796
H        -1.63766082715171    0.35981039210449   13.73486754555180
H        -1.11286440641948    1.19006215798625   15.19169590284862
C         0.07098979563182   -0.56433182761362   14.70578615764470
H         0.38261011558376   -0.49660274620082   15.74901514973841
H        -0.52506393784378   -1.47240758220266   14.60268724808836
C        -0.64312617532020    2.90188116232601   13.16585534030323
H        -1.54270868763573    2.70755901203482   12.58541604622070
H        -0.01259788194033    3.58410763103482   12.59926039891455
H        -0.94702783215478    3.39092370981792   14.08765824106333
C         1.97590818586664   -2.03200411589116   14.06978673273622
H         1.27594814614877   -2.82703993661654   13.82057856304234
H         2.25464520676075   -2.13651240380733   15.11528996917761
H         2.86784602578374   -2.17478064978509   13.46598047101038
C         3.49872741787784    2.12062249051904   18.79946455109567
C         3.18325729509596    2.26737751387251   20.28108592388707
H         2.47027523582307    1.50748878784369   20.58710024897682
H         2.73650108755508    3.24939559082964   20.42846863084726
H         4.09513499714215    2.20036270028622   20.86658640513708
C         7.38929581963084    1.80767887504561   16.87243629046327
C         8.80943401907864    1.50986807378443   17.34192821916853
H         9.03489723179251    2.13954206862520   18.19935471861893
H         9.50633665016144    1.75402064458653   16.54368252177819
H         8.90345141217543    0.46415812563332   17.62133743142074
C         2.74912535332103    4.42403770096614   17.23571025372111
C         1.54016040429618    4.70730953059472   17.85440512474248
H         0.66460506682468    4.11505985085040   17.63311409505263
C         1.46857811266501    5.73122978148487   18.78458899483493
H         0.52725621766995    5.95128075176771   19.26803597960884
C         2.59885486504404    6.46409291808747   19.10436990252316
H         2.53764788935916    7.25708517515219   19.83559881121599
C         3.81148058016337    6.17136753933511   18.49817280168597
H         4.69627068735969    6.73228065151845   18.76072755303299
C         3.88918237096272    5.15519991651440   17.56562879284798
H         4.83876496466143    4.89801028576334   17.10271278068070
C         3.47779139228685    4.21957135022272   14.63270051062233
C         4.81784918521755    4.27078654768748   14.25933595577134
H         5.55257808273398    3.65565704703006   14.78210372552650
C         5.23404121821607    5.12157022119106   13.24879589915625
H         6.27739155060422    5.15065446687489   12.97061786307654
C         4.31713221063006    5.93289220843605   12.60219144458685
H         4.63784944949626    6.59318596697753   11.80954787990227
C         2.98601487786182    5.90848607051941   12.98680478003211
H         2.27051513859534    6.55496735197670   12.49857478174608
C         2.57014495108135    5.06436549669581   14.00029259308978
H         1.53288912082611    5.07114852857812   14.30295199131676
C         5.04314276860126   -1.05389994518448   15.18214488588965
C         4.55390433244468   -1.33260422764263   16.45672663350677
H         4.17993043672045   -0.51949293093606   17.08795054253785
C         4.55571707632103   -2.63422777387270   16.92715154266728
H         4.18137670094628   -2.85039651445337   17.91703428582889
C         5.04124842250041   -3.66021902967803   16.13235790775687
H         5.04870776898291   -4.67432446097089   16.50392476161681
C         5.52199891209926   -3.38717798686466   14.86192031971128
H         5.90095848952393   -4.18775534986048   14.24328790634354
C         5.52018667821331   -2.08901168227166   14.38439228239145
H         5.89917642320158   -1.87282248147534   13.39364629154709
C         6.47463277392612    0.86772788689944   13.58587168901807
C         7.66401388843977    0.27386854107618   14.00312512923323
H         7.65904430493349   -0.37332872131904   14.86896292258040
C         8.84091836527250    0.52113371395653   13.32213795474015
H         9.75922183030760    0.05692986226398   13.65118172868819
C         8.84632635381970    1.36845006293596   12.22581856923420
H         9.76794620264063    1.56345556843668   11.69760172988542
C         7.67062100718053    1.97550742937478   11.81680448932143
H         7.67454749122862    2.64659476077999   10.97015242420285
C         6.49066754977690    1.73482349085125   12.49669355633768
H         5.58213527519831    2.23186291488114   12.18692036389621

