105
CSD_code = FOHPUQ | q = 0 | S = 0 | Stoichiometry = C55H43NO3P2Ru | MND = 6
Ru        2.82412291260803    4.23688957514261   -5.16859634624622
P         2.51464635722172    3.17769998932812   -3.06634292959941
P         3.19920676878700    5.40348826940319   -7.13196220045954
O         0.78109636548202    4.77866849365246   -3.09085149838497
O         2.30282835618521    6.08437383764622   -4.03423382257161
O         0.00182017605308    3.86789911837010   -6.07574617741525
N         4.78934312286417    4.52354323536933   -4.73523739883993
C         3.91469671185143    1.97012411089255   -2.90334094933087
C         2.08402632522469    6.78850974250533   -7.55720260318016
C         4.82563453512302    6.22149649690118   -7.17039820955111
C         5.96405138472714    5.46039794025665   -7.43397639570537
H         5.85581121682756    4.41649141388639   -7.70117247372157
C         5.99465660296576    0.10840676122190   -2.95478517926595
H         6.80164510855266   -0.60974005929023   -2.97527873684282
C         1.20006722744008    1.98351852222541   -2.64368805914522
C         2.71069765526483    4.09716885821031   -1.48589524533009
C         3.88973259527881    4.06571683375272  -10.97811765242748
H         4.59543200425304    4.23357293657644  -11.77909738898534
C         5.11482087498185    2.23064013990145   -2.25542600847100
H         5.25209449529930    3.15267465310862   -1.70824958544503
C         3.83041605165445    5.81590745601958   -0.21137221207071
H         4.62464065008713    6.54512870385475   -0.13238591459563
C        -0.01825569393837    1.94780821463932   -3.30330833284998
H        -0.22190266057116    2.66793716462410   -4.07531087289826
C         4.79823601030999   -0.16755854905387   -3.59825240827945
H         4.66784650836709   -1.10234480544716   -4.12365991334477
C         5.28564784593290    5.63750391088492   -4.20244717153512
H         4.57195857829770    6.43134788496324   -4.00703460394603
C         1.92661475053334    2.98678150210734  -10.13059101858861
H         1.09615554116669    2.31008042404901  -10.26684813053532
C         3.14738279712053    4.52894707018592   -8.73871438644608
C         2.83781455657788    3.18374242621520  -11.15502879504390
H         2.72560374222602    2.65697562300577  -12.09114022039848
C         1.43978372781226    1.07289069718380   -1.61410890700897
H         2.38298436672237    1.09662121446270   -1.08438998767382
C         4.04439838593086    4.74105903950378   -9.77991345079875
H         4.86860718827364    5.43068650741201   -9.66476038130980
C         1.07813883874196    3.96267565466507   -5.67343882148162
C         7.35097709962703    7.36688368942709   -6.99282660056025
H         8.33231668562391    7.81351326385442   -6.92926707349439
C         7.21835491241672    6.03456374892082   -7.35135503751320
H         8.09588488424021    5.44063610255287   -7.56246012899878
C         3.60771953201192    2.55468174001119   -5.99884864670249
C         2.30187716887898    7.52551307234716   -8.72008847458308
H         3.13332817500637    7.27709859153788   -9.36531163611489
C         3.72575498074462    5.03809018366906   -1.35132601245632
H         4.43690038010683    5.18316983740506   -2.15086287894757
C         2.07953957198670    3.65770391274735   -8.93250964433602
H         1.36791986489662    3.51701339009822   -8.13293427960066
C         4.96701613255604    7.55177200389272   -6.78898663836864
H         4.08709096263231    8.13593996813956   -6.55580554678971
C         0.39241781156454    8.88832879214192   -8.21777078427045
H        -0.26414766891952    9.70637518883935   -8.47564871747641
C         1.01160647048082    7.10769624234530   -6.73469764295801
H         0.84527641534298    6.54005549336910   -5.83021701595179
C         1.35207756739521    5.88167423610674   -3.23744287515668
C         5.71169147702359    1.35233317023081   -6.33031488669700
H         6.78013110481382    1.27640410897631   -6.18799890032542
C         6.22526100054076    8.12188011626003   -6.70907530872802
H         6.32825250179543    9.15786460314785   -6.42018213997793
C         1.45920740693202    8.57044931528496   -9.04529064009451
H         1.63240114570343    9.13999949837557   -9.94696593992536
C         5.63113617096796    3.52969806245346   -5.08697576658436
C         3.77437761369902    0.75706354060172   -3.57659478108308
H         2.84442767722439    0.54515485555308   -4.08746955151131
C         1.78851206582340    3.96686256410533   -0.45145003422164
H         0.96541085556313    3.27608275347616   -0.54907920145241
C         6.62649388401503    5.80330722500475   -3.91685030402870
H         6.97856392905502    6.72561519543659   -3.48290846555046
C         2.97252902567082    1.52384559028265   -6.68907374479867
H         1.89782249121688    1.55146652893692   -6.81997344311345
C         5.05097741638941    0.36481687914433   -7.02746292250819
H         5.59954367482667   -0.47355766726677   -7.43185875005242
C        -0.97800389071830    1.01219114170349   -2.95283102000089
H        -1.92278253490627    0.99310838838496   -3.47653316424330
C         0.47970460222876    0.14415946766868   -1.26283032741707
H         0.67605503392002   -0.55339977064768   -0.46101284176369
C         1.89733264266677    4.73978337653406    0.68966554199750
H         1.17093901432253    4.62556845440122    1.48157707547746
C         0.00202503965726    6.83463387300496   -1.36787361708094
H        -0.38700343695968    5.84003746109194   -1.21222197778623
C         5.00253844583340    2.43900007508171   -5.81384143909031
C         1.41980995613020    8.31234536018341   -2.63089610575294
H         2.11720759826634    8.45799834448117   -3.44308140278041
C         3.67587880486176    0.44821623198763   -7.19871773473527
H         3.15370049687665   -0.33416391699051   -7.73201280239836
C         0.90810048248791    7.04055706963693   -2.40125353014661
C         2.91702262727949    5.66787637162282    0.81615785971340
H         2.99178724658599    6.27886748987607    1.70372854944998
C         6.14682001849680    1.30638438456039   -2.28177585633591
H         7.07378030848956    1.52807405082400   -1.77092930552544
C         7.49559100802079    4.75486033574077   -4.19252275604861
H         8.54624519104518    4.83505827494534   -3.95657359616739
C        -0.37984300280381    7.89192602481098   -0.56423626531297
H        -1.08089723695328    7.73186233553132    0.24211295581837
C         0.17036113839207    8.15730478056705   -7.06377758839004
H        -0.65859386467006    8.40256459835217   -6.41618476128665
C         0.13519685011469    9.15805016393743   -0.79228061294199
H        -0.16436209016977    9.98412277328351   -0.16319812858419
C        -0.73169608197996    0.10716019428504   -1.93606777185947
H        -1.48014715470041   -0.62263783122854   -1.66288150904938
C         6.99496465359584    3.62058829858628   -4.79449293430496
H         7.65098018169172    2.80219560661974   -5.04181047277195
C         1.03147052638859    9.36818800793187   -1.82798093145691
H         1.42716505966174   10.35789177606626   -2.00693472510082

