48
CSD_code = FOHTON | q = 1 | S = 0 | Stoichiometry = C19H22CoN6(1+) | MND = 6
Co       13.01945147921774    9.68218613543513    2.42236465991465
N        14.80618213282596    9.98677452822620    2.85540161925526
N        12.89318500179363   11.58384992994567    2.44607761978426
N        11.05502568326334   10.01231540946754    1.51895516188330
H        10.36127640610449    9.28384355835377    1.67453806001359
N        13.42520747769021    9.57392569071621    0.59255276801124
N        13.35685288851077    7.81540206769613    2.37603295870563
N        12.44513461443039    9.60693446682179    4.27786654026203
C        15.92617748450198    9.31065899280962    3.09076428335454
H        15.96023119407814    8.23799044764692    3.11923509438824
C        16.98593021917736   10.20123007606136    3.28942712463002
H        17.99925190915024    9.92454638254264    3.50100197526794
C        16.47926506421134   11.48234355331781    3.16238851450087
H        17.01099262692516   12.40882035243735    3.25019188936502
C        15.11209106992653   11.33656497127907    2.88609638719056
C        14.02305359068330   12.18636699399958    2.66326581532062
H        14.11088967349988   13.26797143754246    2.67796420943323
C        11.66170970950571   12.28717891602531    2.19375205521302
H        11.71309978514188   12.82559589237335    1.23927159447135
H        11.45868506196603   13.02557863277054    2.97818431158024
C        10.54639429855631   11.23858978125750    2.15581808423147
H        10.24431614090546   10.99230051862036    3.17670394341929
H         9.67033346957464   11.62954331090705    1.62391656656957
C        11.21721289316023   10.15940331819468    0.05165534200708
H        10.56282277531525   10.94601680411531   -0.33618001959768
H        10.93921414848417    9.21284564632048   -0.41811798649140
C        12.69431684944513   10.43893563607176   -0.29148943220601
H        12.89037895855057   10.20158437159101   -1.34256513979968
H        12.96238696591400   11.48084886898967   -0.11377115119194
C        13.83798477140646    8.40476500103809    0.18721241132835
H        14.02078989630719    8.20401410551267   -0.86348517542988
C        13.93625638720503    7.43063897829546    1.17878649325469
C        14.36615879933929    6.09831928031622    1.27595186840497
H        14.84423170025883    5.52934056588560    0.50402789456067
C        14.04234165911339    5.68511631386627    2.55460320634157
H        14.21466767431013    4.72004527581405    2.98790627413619
C        13.43360177300623    6.76912050916780    3.19682174697215
H        13.05966674492326    6.79436621495399    4.20467037726971
C        11.40379633799916    8.82347725807907    4.58041405087172
H        10.94004363125978    8.28796121670433    3.76293505161928
C        10.92552723522892    8.66099992963678    5.86751799560758
H        10.08277856324528    8.01299093635243    6.04777089297325
C        11.55044170831195    9.33187671431301    6.90789115879889
H        11.20759395756507    9.22162494855085    7.92450847348536
C        12.63073776823147   10.14219247868141    6.60025460811566
H        13.15782372552094   10.68392229652951    7.36874779951015
C        13.04175089727853   10.25175111636913    5.28262806775777
H        13.88603719697971   10.87743016839680    5.03353395493559

