97
CSD_code = FOHTUR | q = 0 | S = 0 | Stoichiometry = C44H48NiP2Si2 | MND = 4
Ni       -0.06331982972902    3.88195932539931    3.55882352970364
P        -1.85617160913269    5.12513553264180    3.78641882789280
Si       -2.25923931754293    1.05596443169899    3.04863037635726
C        -0.68586178562802    1.98752216785086    3.45480927513609
C        -3.75266100015798    1.57681985833000    4.11625775243703
C        -1.92572448572135   -0.79763007661973    3.37337623269043
C        -2.66607975524177    1.30265698971792    1.19889555318899
C        -2.67941127177912    4.83464789170420    5.39489343708817
C        -2.22358743833238    3.76566550537688    6.15707900647888
C        -2.77767653349690    3.49948066694418    7.39601673282587
C        -3.79304969350566    4.30482349720669    7.88355992472510
C        -4.23655930939254    5.38682811536928    7.13905336159494
C        -3.67767563529787    5.65985486578424    5.90399853508420
C        -1.75756575702617    6.94970329510193    3.95022874368237
C        -0.94220855475171    7.42623996097736    4.97304919873853
C        -0.82324902898842    8.78067590410765    5.20629554384799
C        -1.51382491921453    9.68012587997451    4.40946799075491
C        -2.31357486089849    9.21551488010155    3.38062105330639
C        -2.43686774671199    7.85622036590465    3.14830051811983
C        -3.19480461340550    4.99912644336785    2.54860286184581
C        -4.55264397477707    4.90020190810066    2.82195128684498
C        -5.46336903953921    4.80137677802665    1.78379651487244
C        -5.03104237382243    4.80765237506502    0.46832802859688
C        -3.67687109219825    4.89857486985080    0.18719245594007
C        -2.76642285852903    4.98211259707257    1.22329840536504
H        -3.58592146754611    1.36894625047346    5.16895139021799
H        -3.95613614744917    2.63797492673003    4.01960805787665
H        -4.64746342838683    1.04091304580211    3.81151886994745
H        -1.63946783642425   -0.97583094859184    4.40488067133850
H        -2.81546301697552   -1.38698549074144    3.17273493213093
H        -1.42364628678600    3.14750778467775    5.76125502885105
H        -1.13016850320628   -1.17562088624825    2.74085510553677
H        -1.82324394837015    1.02929147036665    0.57081342085856
H        -2.41771918383077    2.66651094375424    7.98288433283387
H        -4.23318645951271    4.09846545150646    8.84846760941562
H        -3.51272398477588    0.69134281661230    0.89950658362419
H        -2.91427817555895    2.33740258753842    0.98504356902627
H        -5.01815489849312    6.02420582360189    7.52768970425217
H        -4.00634509493078    6.52242687396097    5.34033635592133
H        -0.40211023040201    6.71469223652905    5.58564832204265
H        -0.19218907244278    9.13946490993979    6.00636786418075
H        -1.42494811784830   10.74145608745070    4.58942678100538
H        -2.84978384938536    9.91550782730552    2.75550550116916
H        -3.06590520576344    7.50420999892563    2.34295359197960
H        -4.90429223041459    4.89565496486925    3.84354806534574
H        -6.51827745057582    4.72019554533064    2.00371015176212
H        -5.74722097392743    4.73377038502512   -0.33692447505689
H        -3.33413200267206    4.89269990687177   -0.83767775425228
H        -1.70258237923652    5.02367629098319    1.01991394539976
P         1.72953218633569    5.12519843175998    3.33130546599404
C         0.55911610241883    1.98745797379697    3.66266954249863
C         2.55300307848236    4.83484898173445    1.72293281894246
C         1.63077914216817    6.94975851417627    3.16749527473450
C         3.06813732692689    4.99926168430987    4.56917002163925
Si        2.13232232739383    1.05579876338444    4.06924807833346
C         2.09762337467513    3.76564516870302    0.96080613910470
C         3.55105203853663    5.66033784720561    1.21385106147970
C         0.81532725602213    7.42623166955380    2.14472054968655
C         2.30998215004305    7.85634030005415    3.96943727492361
C         4.42598791250983    4.90059248416010    4.29578041480160
C         2.63980664201660    4.98194901996125    5.89447692539915
C         3.62617271730587    1.57621839262316    3.00201819133935
C         1.79868395907001   -0.79780307918312    3.74465479992827
C         2.53839639657319    1.30259285926996    5.91915337666268
C         2.65195137074621    3.49951145255689   -0.27804138221208
H         1.29782228370397    3.14728141853610    1.35658846174039
C         4.11016507364710    5.38737826873046   -0.02111163118263
H         3.87942457522561    6.52303742871591    1.77748788582536
C         0.69618705228617    8.78066070198240    1.91152194135322
H         0.27534117314853    6.71463266168704    1.53208082833788
C         2.18649193133525    9.21563031776509    3.73717816952442
H         2.93897970642348    7.50438968830098    4.77484586633111
C         5.33675429449769    4.80170914212174    5.33389472456968
H         4.77763424832375    4.89638167375814    3.27417541511602
C         3.55029910426172    4.89830668577583    6.93054765079562
H         1.57595912348615    5.02330416196317    6.09792179242011
H         3.45854156033123    1.37092827327958    1.94896777395714
H         3.83161143584606    2.63682495967117    3.10082838711757
H         4.52013532904577    1.03802077178218    3.30514924436132
H         1.51285311492503   -0.97608949179961    2.71304848941509
H         2.68822501710345   -1.38730340861021    3.94575669217287
H         1.00277988129405   -1.17559060291276    4.37686009876758
H         1.69503053650339    1.02998490519869    6.54686425821266
H         3.38445360703898    0.69077986096933    6.21917802405665
H         2.78718662881774    2.33722108919560    6.13287488833243
C         3.66710819896250    4.30514155666417   -0.76555548600674
H         2.29228738360122    2.66640681729633   -0.86489748571520
H         4.89157834783374    6.02498566564699   -0.40973720311115
C         1.38665328712316    9.68017422592969    2.70837264603334
H         0.06513764687691    9.13939384043508    1.11141336910698
H         2.72259176854163    9.91567774058189    4.36232900392881
C         4.90446559081321    4.80763244123789    6.64937459959299
H         6.39167681953413    4.72074866048394    5.11392406891086
H         3.20754227613665    4.89209507818297    7.95541761391098
H         4.10736209718750    4.09888803369133   -1.73043197022798
H         1.29770044576606   10.74149611964683    2.52839993554249
H         5.62066890890431    4.73359801830449    7.45459062107368

