61
CSD_code = FOHVEF | q = 1 | S = 0 | Stoichiometry = C24H29CoN5O2(1+) | MND = 6
Co        5.73782962648767    7.48802998158442    3.94503194106828
O         5.78741230980963    8.58665381110992    2.46733263540201
O         3.89699265595550    7.22460816677975    3.66226280571224
N         7.59241056997386    7.72855688796817    4.29870912888798
N         5.76930155473065    6.37159130906876    5.61550738263746
H         5.05923807376326    5.64335205303795    5.60406238231295
N         5.21212059930113    8.87433807461669    5.08881101117227
N         6.11332277624916    6.00507928402754    2.70302950793229
N         5.63534029584584    4.47046887344716    1.20762416845339
C         6.55075164503082    9.62388733135047    2.38570603345473
C         6.12255768107987   10.67807919429915    1.54317449238484
H         5.18275173857228   10.53897206663781    1.03167496866155
C         6.85538556193934   11.82445368529967    1.40014794282884
H         6.49780186898265   12.61657578952854    0.76004615563824
C         8.05277604939682   11.98353867607490    2.10136672532662
H         8.60941611423952   12.90351078532101    2.02030805831134
C         8.51775313135536   10.96522427308560    2.89190617734992
H         9.43192537807898   11.12237527688654    3.44252242013874
C         7.81096721092965    9.75530776740697    3.04345807396263
C         8.34868390530968    8.68220154629778    3.84042305691083
C         9.82245026531857    8.68091228670602    4.13386248360330
H        10.00755813013567    9.01684355338243    5.15484439601154
H        10.36184711751707    9.32612891099469    3.45034013218067
H        10.23233448153144    7.67701936999980    4.03835623666878
C         8.16120456553683    6.73167330972222    5.18858889779181
H         8.58308589658762    7.23100872732002    6.07010305698045
H         8.97612185566322    6.18187657954343    4.70329196369099
C         7.08477020382281    5.72750442000439    5.61507869305371
H         7.05379097259486    4.90445054107668    4.89884072221064
H         7.32868362194550    5.31501171421372    6.60239613534933
C         5.51924146162575    7.23860582214861    6.78021411464464
H         6.13115112094929    6.93771589591594    7.63668744336331
H         4.46581396857469    7.14878947651303    7.05409099577949
C         5.78681292479058    8.70535597375931    6.40569676511356
H         5.33484167085865    9.35931817247682    7.15420138540532
H         6.85892229668447    8.91211212292089    6.37019561845445
C         3.96653849442326   10.84595653558739    5.79661121529152
H         3.43645082268036   10.44603687785115    6.66150968042508
H         3.32015415298816   11.58476948027560    5.33730975168748
H         4.87714996207773   11.33452411438882    6.13816658541131
C         4.28342635159238    9.74137235477350    4.83113625785281
C         3.43782976059927    9.57494712763388    3.67842197471452
C         2.72822554387529   10.62618485215694    3.08238967423695
H         2.96117080008711   11.64633891587229    3.34942423526819
C         1.77459442624491   10.39001231979546    2.12233922647826
H         1.25180447583741   11.21270577751182    1.66111593035086
C         1.48136632036183    9.07846759758120    1.75130269789733
H         0.71332549235557    8.88902068378843    1.01641271196907
C         2.18477313786617    8.02849623409731    2.28612387145524
H         1.98490151166830    7.01344422358460    1.97836916922233
C         3.22223850293386    8.23787011309988    3.21680127315607
C         7.17497405325357    5.87455124438468    1.85820170231269
H         8.06043386715764    6.46855811671136    1.95462782670508
C         6.89000620942899    4.92107783963660    0.92770476637309
H         7.46660888103688    4.54404850257194    0.10884559841566
C         5.20418519043759    5.14673381818800    2.27875746419179
H         4.23654959287667    5.01940723305792    2.72127544238758
C         4.91952064279090    3.46385187437027    0.47391524838046
H         5.44127956971955    2.50688774543189    0.53283653580196
H         4.83732802640897    3.75120726138207   -0.57509382120079
H         3.92059491012982    3.35159744573951    0.88990087236501

