42
CSD_code = FOHXOR | q = 1 | S = 0 | Stoichiometry = C15H19ClN5RuS(1+) | MND = 9
Ru        9.02463327741882    5.47882163295121    4.90858706256432
S        10.31382822420361    6.44407974523149    6.79431380132461
Cl       10.92737538425487    5.98409126218291    3.64577409501586
N        12.56697604436862    5.13151174679307    7.60688167811583
N        11.58380068149195    2.06049826609723    5.25190207410973
N        10.14851639697175    3.75954979429262    5.26679574287059
N        13.22417229254617    2.96938327062994    6.84486463243873
C        11.18558773257346    4.02497463057822    6.11786489749498
N        14.52959157168605    4.11455931483414    8.31391136611992
C        13.42938103442163    4.05052164210357    7.56403457664999
C        11.41316087758810    5.18052757425962    6.86824028861471
C        12.09953044832939    2.96764911007897    6.11716465584385
C         6.86155521207690    5.38587766797666    5.69069470719363
C         7.24534126039270    6.72613199268483    5.44311046940503
H         7.12174078722175    7.46693821222627    6.22855086433875
C         7.73063561350009    6.23964984095700    3.07936384928123
C         7.03130053682109    4.46347322465859    4.63639980802620
H         6.73389911063585    3.42967968203846    4.77620267419090
C        10.41719325505538    2.57720439376003    4.75896620377737
C         7.45116073489044    4.88298746117724    3.34546542321991
H         7.46251613802880    4.16748200053204    2.52983899593734
C         6.31720270584990    4.96361732984389    7.03353932964593
H         6.29036816018112    5.84562084358477    7.68238561909163
C         7.68580394097904    7.14660558608341    4.16784268869513
H         7.88701528598609    8.19800523901726    3.99195577332967
C         7.24001441597709    3.92609066444850    7.67996185887628
H         6.90948762249760    3.71463921296327    8.69301981464409
H         8.26275704850435    4.30673852422970    7.72008500429836
H         7.23515880824384    2.99455976047385    7.11839979368305
C         4.89099549513672    4.42519611969751    6.89264196240639
H         4.48723488377792    4.19553876881353    7.87467716437193
H         4.87037581917766    3.51741189978691    6.29482825383146
H         4.24761601820638    5.16452949827783    6.42159169539213
C         8.11670614287562    6.70212376299875    1.71640937874544
H         7.71686591445746    7.69395551375302    1.51657490691456
H         7.77363217839625    6.00931212420394    0.95217620969650
H         9.20580597681322    6.76526393902727    1.65294559144362
H        14.77381493103991    4.92772386453630    8.85153132098538
H        12.81045386018610    5.94633558762740    8.15858058648846
H        15.17405942965891    3.34274519779957    8.27056474565404
H         9.81392071174056    2.06151446344369    4.03719898133939
H        12.00081403586207    1.17797963334784    4.99646145394983

