67
CSD_code = FOHXIL | q = 1 | S = 0 | Stoichiometry = C26H33CoN5O2(1+) | MND = 6
Co        4.88097676841823    4.00011547654213    3.99764170764155
O         4.15448233034087    3.02734466613821    2.55680947762027
O         5.57007795616191    4.98224086708122    5.48111387964917
N         6.55504245660808    3.08361857910603    3.70134048943640
N         4.34413091354769    2.51999335509213    5.28994399204396
H         4.42137424330108    2.98328654586805    6.20007915609406
N         3.20774934412502    4.92903770103220    4.33044717323811
N         5.41236178195340    5.38599217221104    2.80430404394303
N         6.57365257510664    7.00501570793851    1.88977212874451
C         4.78975809125467    2.89668021412320    1.43590761045438
C         4.05647881181827    2.85812797405571    0.23014425559677
H         2.98080210899632    2.92331838059989    0.29539780624581
C         4.68475342139201    2.76488764439738   -0.98514442140038
H         4.09974357576975    2.75676815486860   -1.89231016052712
C         6.07575799992114    2.70349446164828   -1.05696650181281
H         6.56779757030623    2.66919987015744   -2.01582900092456
C         6.81359502889488    2.66930627807939    0.10103398002644
H         7.89043663398594    2.62486329786332    0.03498157497963
C         6.20195947984153    2.73827742951088    1.36132586579883
C         6.95741602261062    2.57502452668586    2.58264326276564
C         8.19624336082107    1.72315637669166    2.50211678237474
H         8.22256685794180    1.00563751845743    3.31860578735595
H         9.09176245815445    2.34229008136212    2.55848311717951
H         8.21735494291988    1.16798563404886    1.57065919263399
C         7.29745634765288    2.85811596954333    4.92576857493956
H         7.23122423490443    3.78351372279711    5.49961207698424
H         8.35191253008933    2.65722581138846    4.73005147830226
C         6.67477546733683    1.71712084068340    5.75595849820113
H         7.27599663756002    0.81029531831945    5.67129198823559
H         6.66731334250956    2.00799405557463    6.80686963209824
C         5.25814945479722    1.36617603331437    5.31215558275201
H         5.26945866697318    0.93129145148303    4.30879957497491
H         4.86848555682736    0.60403889317293    6.00086680568131
C         2.96947988137565    2.01388333066797    5.15443075246933
H         2.78241320954791    1.25753514452072    5.92890548626778
H         2.89316544193632    1.53264116083297    4.17634777480275
C         1.90723828528671    3.09832411115152    5.26175087583131
H         1.98941700123325    3.61113392183138    6.22388730357628
H         0.92693836316722    2.62297117839589    5.21308182593402
C         2.03181654366896    4.11066852503565    4.12151149753752
H         2.17410742299282    3.56610854438547    3.18591244596094
H         1.12358649766293    4.70873756217955    4.04074841866960
C         1.75392575084398    6.74589172024518    5.09695701201404
H         1.15260133748650    6.07193067197954    5.70355769815976
H         1.20932606649193    6.96007837518397    4.17735422350386
H         1.87608808797781    7.66951856207481    5.65185956334509
C         3.09312899222816    6.13183801923132    4.78708435961672
C         4.25572001787994    6.93433811369769    5.10870375285225
C         4.22668229717061    8.33357620224608    5.09072166866867
H         3.36221841665808    8.84338742748583    4.69235037778361
C         5.29825429128172    9.07708461454204    5.52774203513569
H         5.26363486747024   10.15417748494781    5.48815179499034
C         6.41839070958080    8.43090855046866    6.04528584012784
H         7.24427056108498    9.01136001840732    6.42830676414802
C         6.48917992848937    7.05976537971126    6.04951988323095
H         7.36189003052744    6.55058652990820    6.43085680146496
C         5.44007309933394    6.27181442361800    5.53298714689304
C         6.56996464297474    6.02148799992804    2.79653350314349
H         7.40212578628449    5.79953064643004    3.43445023282512
C         5.35616972858371    6.99389261302361    1.28068134301151
H         5.09538063105901    7.68394413268948    0.50563848806108
C         4.64230627642578    5.98554568411104    1.85458783429261
H         3.64812177808228    5.65417784944809    1.63583794793650
C         7.64174509772842    7.92746018894697    1.62276421707030
H         8.53149037108279    7.62394754156815    2.16991522992875
H         7.35891217364385    8.93319007320170    1.93847975936697
H         7.86478943991841    7.94542868806615    0.55562073005267

