52
CSD_code = FOJDAK | q = 0 | S = 0 | Stoichiometry = C25H23AuNPS | MND = 2
C         4.74877972995545   23.99922212256682   11.89177624304694
H         4.48211089509065   24.18725517675529   12.93343103081167
H         5.79811890865810   24.25798401573650   11.73533876980982
C         3.85645407682537   24.82207182227727   10.96071189927100
H         4.03612405555243   24.49803330064830    9.93440358507288
H         4.12754704780892   25.87737105409646   11.05730695900615
C         2.41785238996993   24.62183254476028   11.32402704305867
C         1.80839786113697   25.40562061524279   12.29835384292196
H         2.35195746096943   26.20765196743345   12.77796777856209
C         0.49411647089917   25.14255752578455   12.64414216077161
H        -0.01380679174348   25.73456168167449   13.39610845765561
C         0.35655240592368   23.42484430981913   11.17830598586271
H        -0.26107456956590   22.63956346691777   10.76076955309575
C         1.66187598067130   23.60563060176266   10.75184598236475
H         2.09542675052714   22.95957912023907   10.00533719428647
C         5.66979262128211   18.58576960862267   15.58585455732732
C         5.22935119972242   18.19965362640372   16.84659666874587
H         5.31748750977255   18.87849773903952   17.68369082363089
C         4.67817457508148   16.94207650800178   17.02038209706290
H         4.33540929377778   16.63959829049961   17.99896010731343
C         4.56463891724172   16.07394833712198   15.94681234076308
H         4.13331693296127   15.09460863260549   16.09017529919399
C         4.99605131227144   16.46155333928715   14.68701977605969
H         4.89976879727610   15.78737791413297   13.84918297151338
C         5.54116972575449   17.71719102645600   14.50343685206828
H         5.86927926318061   18.04243458873964   13.52366449264804
C         8.17082230576418   19.87661126481210   15.13214567608341
C         8.96188984646116   20.88172100275547   14.58063212010734
H         8.48976011611438   21.79142034874262   14.23022443502214
C        10.32898877768488   20.70936358516492   14.48012533676660
H        10.94199242388049   21.48971784584278   14.05455583152206
C        10.90950322944620   19.52920737527107   14.91880010393511
H        11.97713077273158   19.39114975240934   14.83611359925706
C        10.12293499670542   18.52352831744938   15.45704104700540
H        10.57753758059916   17.60350495260592   15.79384310948152
C         8.75385235075347   18.69093138107924   15.56616398016594
H         8.13846796587631   17.90687397169846   15.98546290054928
C         6.20082884705104   21.13302777622579   16.77013227093840
C         7.20257668753339   21.23951350367588   17.72883221986858
H         8.15495306649052   20.75167645313702   17.57334422322460
C         6.97112625655809   21.97274229370565   18.87924194598193
H         7.74768605276961   22.05617548136137   19.62527528039593
C         5.75047932136173   22.59817035986004   19.07591611096925
H         5.57737292023665   23.16927615219327   19.97570635665219
C         4.75282779326388   22.49786562905338   18.11820760021750
H         3.80382281588888   22.99020062446591   18.26931291611258
C         4.97802218499897   21.77206029129459   16.96430413408235
H         4.21380886849283   21.69298045655377   16.20051308545601
N        -0.22445080516365   24.17336725351409   12.10178046221892
S         4.55855268419124   22.21233597167425   11.54490116787303
Au        5.50253055925709   21.22624683774197   13.40201015000642
P         6.39050956005882   20.20744218103368   15.22321146416931

