94
CSD_code = FOJFIW | q = 0 | S = 0 | Stoichiometry = C40H48N2O2RuS | MND = 5
Ru        2.49313102981996    3.79484408099986   13.53329256010144
S         1.59881668785415    3.42288496104262   15.65575455660031
O         3.40950468310223    3.61443419312555   11.28020524596503
O         4.16092475960564    3.07416467630207   14.32214660016880
N         1.88104383470257    6.48048816783840   14.15027538385960
N         0.18075606611527    5.78309186688541   13.00140303908557
C         3.22519121381986    6.54027837444261   14.61326773619011
C         3.52012404115269    6.47399122606211   15.97931708983837
C         4.84917400145828    6.56020847092150   16.37147450352007
H         5.08581120191671    6.48463573738770   17.42307324763301
C         5.87356436093673    6.74917273362777   15.45695359220303
C         5.55246783957647    6.85065670380755   14.10937433042301
H         6.34005857462118    7.01778439300684   13.38753674912545
C         4.24175513546442    6.75560166047397   13.67116890753604
C         2.44518727868000    6.36130717272943   17.01479817030144
H         2.07710497747859    7.35388996179693   17.28076721883174
H         2.83952892125276    5.89401423856760   17.91369816843785
H         1.61353529537642    5.75934018232080   16.65236899779485
C         7.28894323838534    6.90810582845697   15.92280531053978
H         7.47436924525783    6.30363871368258   16.80701202310950
H         7.47317106981043    7.95164706637781   16.18375765041575
H         7.99417599029542    6.62576147644365   15.14478842625388
C         3.90126109788262    6.93063381782373   12.21874483245871
H         3.53657497213705    5.99143511680634   11.79609015911512
H         4.77775355495736    7.24809388829492   11.65869722759796
H         3.12138293087212    7.68177215328330   12.09206874200216
C         1.40716384263494    5.46391605738108   13.41274621957955
C        -0.25676536918254    7.09620383483310   13.46883809827869
H        -1.14950039949468    6.99846225451345   14.09215953883002
H        -0.50424705615140    7.73743831189575   12.61625206211520
C         0.95377994188903    7.59871772741056   14.26212995613704
H         1.39489988574067    8.50652415637052   13.83447751941327
H         0.71192178218126    7.79626068621750   15.30959325755728
C        -0.67679578535383    4.99158542974414   12.19332547678105
C        -1.67195894323456    4.21522254246537   12.78569084524330
C        -2.53170952157695    3.50344521733236   11.96051011654725
H        -3.30450016398627    2.89661630890437   12.41088017504127
C        -2.41702633893470    3.54566893589165   10.58003041651069
C        -1.40290392270130    4.30954599825415   10.01783074348341
H        -1.29042342095121    4.33227918009461    8.94352508299718
C        -0.52565596579109    5.03366237843330   10.80616522423421
C        -1.79676176410255    4.13314987755429   14.27453709336945
H        -0.81222503098377    4.03896050669852   14.73072024302312
H        -2.39593686597868    3.27264139709163   14.55819133969810
H        -2.27865833877883    5.02471841484303   14.67588018654557
C        -3.36236471969766    2.78625594446641    9.70034847888905
H        -4.08561256177830    3.46781229770289    9.25181871991676
H        -3.90722434580353    2.03614028280036   10.26758474492816
H        -2.82128969510371    2.29665614574235    8.89352870415758
C         0.58480026672139    5.83080200230600   10.19300436023478
H         0.44638566575801    6.89767442859326   10.36837654694330
H         0.63071579365087    5.65838022317181    9.12135837474266
H         1.53385395382138    5.53214356331921   10.63688017635808
C         1.27397225678283    2.62196429896010   12.70634036611431
H         0.50561617816051    2.04993687513229   13.23639308222438
C         1.35097716959903    2.39558967338032   11.30455826108397
C         2.42306774898709    2.94292458931299   10.56334533075526
C         2.46339221559825    2.83278353812868    9.18575509272424
H         3.26873867384743    3.28178401832169    8.62243169539087
C         1.46057379432817    2.14818356083371    8.51477553507062
H         1.49823863791881    2.06909095862135    7.43875341696246
C         0.42534879716363    1.56139266411919    9.22625821054558
H        -0.33959398726629    1.00749016725825    8.70201657788076
C         0.36857492879020    1.68267962178011   10.59738354582830
H        -0.44621859959576    1.24194213895842   11.15204875225556
C         4.73473845255809    3.09558468527836   11.05124195286306
H         4.93445150668908    3.13543673872442    9.97010235595469
C         4.81296326041299    1.64850852795135   11.53008182656057
H         4.49223119087077    1.60191297840675   12.57198078318110
H         5.83103859662967    1.27691025076417   11.45090228008745
H         4.15770703270632    1.01293062881666   10.93623936077707
C         5.72881708619658    3.98942129399740   11.77633094303268
H         5.76045498402986    4.97757541445973   11.32585564800644
H         6.72136030333801    3.54996725404237   11.72537224710038
H         5.43778523862751    4.07880574088740   12.82172119251572
C         3.09990858816240    2.95244485312414   16.43407070385450
C         4.22709617778962    2.79638658655478   15.60976932183158
C         5.42872089282179    2.34164686776139   16.18581076185085
C         5.47976925265958    2.14225071425510   17.55491856856635
H         6.40582865758672    1.82140818315532   18.00901534278833
C         4.36868566516228    2.33983169815754   18.35979625928655
H         4.43753260960402    2.17761162227822   19.42592659498505
C         3.16855422067162    2.73123808139479   17.79864834882660
H         2.28344388915069    2.87039328296419   18.40191266793559
C         6.62273074746253    2.11919420882510   15.28649445605876
H         6.24400242371340    2.03022995799888   14.26243897005862
C         7.55153761818214    3.33418170558544   15.34186216628433
H         7.00994502955034    4.22743721293290   15.04106397985125
H         8.40222346317190    3.19795037494227   14.67548997918891
H         7.92314701294326    3.47958500105880   16.35444043329881
C         7.38307868703023    0.83777394351721   15.62356877261326
H         7.88737567719896    0.92141456537159   16.58336033597568
H         8.13718183553182    0.64048721732818   14.86291224201788
H         6.70182915994587   -0.00964266190078   15.66428746712466

