40
CSD_code = FOJFOB | q = 1 | S = 0 | Stoichiometry = C15H18ClN4RuS(1+) | MND = 9
Ru        2.92269636544317    8.40801128921249    2.57752956127116
Cl        3.39469866638017   10.35708180559916    3.77757720084477
S         4.29402796038763    7.30083260675489    4.30558487936517
N         4.75279079036570    8.91888435626486    1.71813889114960
N         6.95630298527105    7.93235361315982    4.43063930197612
N         8.11102839388267    9.22662747409829    2.82013602362002
N         6.60210096219838    9.90939978364690    0.97794517795739
C         0.70351169502049    9.22276625668386    2.33704180875693
C         0.77397597709421    8.13418510792635    3.24276703838894
C         1.29805552600745    6.88588657688236    2.83722633033305
C         1.80491091665899    6.68399291429347    1.53089313866394
C         2.29174551167575    5.32796115992980    1.08179719438785
C         1.46782905280406    4.82537299163165   -0.10659441415534
C         3.78329319043520    5.38497874602824    0.73802842614585
C         1.85629587033608    7.80932730349741    0.68062967177401
C         1.30642533817724    9.05958533178031    1.07243790845860
C         0.06457678624326   10.50740877504840    2.73693064916163
H        -0.81807229642512   10.32650831674760    3.34622800271569
H        -0.20642568524326   11.10198549299840    1.86834313448493
H         0.76706154734613   11.08865205649921    3.33916978988115
C         5.77833115816914    8.68105162575063    2.58488582181940
C         5.73987967901790    7.97303513093068    3.79765001990516
C         8.05676805212597    8.55778269780950    3.92144746276879
C         6.94740794751237    9.29612708401463    2.13527401353014
C         5.27828126341032    9.66451014162590    0.76434069822703
H         7.01452036404541    7.45647910477028    5.32504182398401
H         0.31401696808075    8.22760929985814    4.22094142736054
H         1.23570472096239    6.04158683159965    3.51857017427694
H         2.16112146110333    4.62690425339636    1.91300921777344
H         1.59953485057650    5.46430211152505   -0.97619194957770
H         0.41050953341973    4.79728664485022    0.14545304374073
H         1.78334055584203    3.82028693577159   -0.37157568288685
H         3.95922999576496    6.00093784336163   -0.14087367544142
H         4.15519007720713    4.38520754434589    0.53234689676318
H         4.34684108755548    5.79888436835818    1.57692257290967
H         2.22105950107758    7.69661612725309   -0.33473461995360
H         1.25882550655481    9.86970742133409    0.35208013973605
H         8.96518123608286    8.48246961503455    4.50094282764150
H         4.74332807026763   10.04949390227088   -0.08249985067630
H         7.21009841716650   10.46691935745393    0.39491992291718

