40
CSD_code = FOJGES | q = 1 | S = 0 | Stoichiometry = C15H18BrN4RuS(1+) | MND = 9
Ru        7.19623362167280    3.92017064033260    9.38556811877284
Br        7.64338819376141    1.84779442898820   10.66950554887314
S         8.61575732251822    5.06776506475255   11.05943071252568
N        10.88081248724770    2.52965934187578    7.64763373309391
N         9.02549955717756    3.44294194069596    8.46557194768300
C        10.06482209098559    4.45169307354108   10.49061621977869
N        11.30406584122755    4.54285535968603   11.07105576334885
N        12.43948808745553    3.29105944667868    9.41475051024604
C         5.61884991731657    5.49047388476167    9.64975083023481
C        10.07785487798090    3.73522600426687    9.28246979951340
C         9.53961040404213    2.71337989312937    7.49347521490968
C        11.25113923555223    3.16727843453570    8.78349827097026
C         6.14222304225147    5.66551881295601    8.34601300050768
C         5.04185235046467    4.26741974174123   10.05429101406430
C         6.66627301781640    7.00374346502790    7.88741278915490
C         4.92242617999360    3.18264135474377    9.14760000098583
C         5.54145751761345    3.31498798492405    7.88659313776642
H         5.46094718980941    2.50559951226944    7.16783513983352
C        12.40614512331339    3.96076641585128   10.51619791199029
C         6.14655740719625    4.53771761897326    7.49659501165123
C         8.13705279286323    6.90250169281452    7.47295873181993
H         8.52675547243702    7.89159354896838    7.24942320046998
H         8.25510782777074    6.28379027495551    6.58612340636170
H         8.73016505318990    6.47405714059604    8.28342956799766
C         5.80531034938771    7.54176086407446    6.74086836683051
H         6.14452498992503    8.53570397956742    6.46325653859747
H         4.76264585362102    7.60751468653265    7.04284731064658
H         5.87212866872302    6.90111646831823    5.86483451443470
C         4.19941141694997    1.94102096111566    9.53852471727560
H         3.27289908387562    2.18829984499990   10.05377509401397
H         4.80751820333539    1.35165404950028   10.22894428066120
H         3.97993136381854    1.32205471513997    8.67230011124905
H        13.33473671104045    4.07526570546013   11.05581754968562
H         6.59784203077896    7.70330191421455    8.72773662652017
H         8.98197826665889    2.29271696105245    6.67878578562468
H        11.38174507455301    5.02057505142298   11.96304958130127
H        11.48433096163254    1.99006786369393    7.04338346274195
H         6.52070694567352    4.63295457132646    6.48268981335668
H         5.58986773100803    6.33804803274850   10.32934866479960
H         4.57463773737471    4.19340925377832   11.03123799970403

