53
CSD_code = FOJHOC | q = 0 | S = 0 | Stoichiometry = C20H29N3Zr | MND = 12
Zr        1.52624263135241    5.62442340471932    2.71132393110288
C         1.11140858864972    3.43498319604101    3.93966342922238
H         1.29799621166248    2.45266694254328    3.52640509387910
C         1.97117510659548    4.10362321130253    4.82433511342170
H         2.92107541145416    3.72630622823039    5.17925512895973
C         1.31626631804329    5.26613635489441    5.28320308146912
H         1.66872112614319    5.92177814760602    6.06974545817581
C         0.04954431878738    5.32422512397945    4.67745247842873
H        -0.74085402614906    6.01826963150256    4.94194167714864
C        -0.09586951494277    4.18196179540335    3.83231437810701
C        -1.32954603511027    3.79287990239779    3.13875533946483
C        -1.56705977590633    2.53503242023509    2.73854908692001
H        -2.49278538444781    2.26963053857811    2.25693848737422
H        -0.85656357508200    1.73956372593598    2.88093988667153
C        -2.36154103312144    4.82640539509270    3.00651581263469
H        -3.36385487636045    4.52078294089718    3.26664437028852
C        -2.10748454494361    6.09441925519593    2.62180764614309
N        -3.01608952074508    7.13979247576690    2.75943927899145
C        -3.17817476488742    8.07628090688508    1.66943739225273
H        -2.24776450740608    8.16860445048529    1.11590313739848
H        -3.45117755502670    9.05460616881210    2.07029475555859
H        -3.96834502440013    7.75375140240343    0.97805783668672
C        -4.23749261073486    6.90311954046631    3.48711333008763
H        -4.97311477348702    6.32214500085326    2.91404171153131
H        -4.68308001311018    7.86755106369883    3.73482777880595
H        -4.01418862084357    6.37423338066567    4.41240229221635
C        -0.81449149518844    6.46363150513712    2.01644994930181
C        -0.03054322186553    7.61032625947956    2.29718120381456
H        -0.28692226755680    8.37124479250914    3.02617645114550
C         0.99815610037952    7.68492783595390    1.33228002877435
H         1.69804764924799    8.50246492931848    1.20440026160093
C         0.85858693840171    6.58370329195662    0.46050042228005
H         1.41414777636355    6.43429187734870   -0.45640368641585
C        -0.24378586597203    5.81821085451937    0.89257168110316
H        -0.68590931455828    4.97878184735738    0.36927946950766
N         2.60318933165232    4.42996977387114    1.47201096270596
C         3.71426200488039    4.96067429443710    0.70397614454013
H         4.56578090567864    4.25603798030578    0.69504813358481
H         4.04839052659000    5.91196095405335    1.13115309532736
H         3.43912903780672    5.13138578885792   -0.35546260873316
C         1.98206189762117    3.34474717670053    0.73872136946682
H         1.73508401896187    3.63945440215645   -0.30170597764007
H         1.05788906012685    3.01707250956189    1.22766366060230
H         2.66048421949437    2.47503890082069    0.66622883109144
N         3.06084746246189    6.78652101542592    3.37753167431323
C         2.91634909790243    8.04200113310073    4.08415711572777
H         2.90422966385480    7.90360508419635    5.18468609814353
H         1.99681538953248    8.55700934078598    3.79348236122995
H         3.76508818511975    8.71537555723846    3.86431642835855
C         4.26614235192928    6.12514352119337    3.84386108838625
H         5.16401889293241    6.71349552304400    3.57943828783261
H         4.35402153105697    5.13217965952215    3.39049016913436
H         4.27558656716973    6.01557158654760    4.94675947187263

