29
CSD_code = FOJMUN | q = 0 | S = 0 | Stoichiometry = C12H8N2O4OsS2 | MND = 6
Os        2.31399832555134    0.95068513828430    6.81405248162116
S         3.96031320564519    2.38180203949855    7.94223322548386
S         0.19978596689129   -0.00118180333942    6.00119883185544
O         3.63854284194142   -1.59353948235761    7.75209719509002
O         3.60770132153304    0.81366251828175    4.09111678519017
O         1.32185466905832    1.25060323947061    8.65545056129918
O         1.27390608543817    2.73203620336788    6.35496575532854
N         1.87467050874665    1.98678162978872    9.58391685085571
N         0.06204844737151    2.67546823502402    5.86724722507692
C         3.14984397676682   -0.62922937715325    7.37253726105275
C         3.12866225408273    0.84059731198421    5.13162163783208
C         1.19371815438867    2.14024952956703   10.73392714622207
H         0.24677250384460    1.62268975099236   10.76639753934302
C         1.67853117727465    2.89769180744173   11.76707802142499
H         1.10163516263943    2.99729921269061   12.67103538998576
C         2.91728764411560    3.52412055041769   11.62076203680917
H         3.32458348790892    4.12623739161773   12.41665610568568
C         3.60806276247628    3.35721690277774   10.44646202619384
H         4.56914788520034    3.81557868208162   10.28106452760625
C         3.08733068545695    2.57791420102536    9.40569565370706
C        -0.54350805722565    3.84363899396361    5.58728053352435
H         0.05296593860100    4.71908212091030    5.79578051890604
C        -1.81503455941273    3.89705800788747    5.08083991550361
H        -2.26546697796436    4.85265469529857    4.87147952578198
C        -2.49833179250704    2.70272837937821    4.84617386067021
H        -3.49981133850361    2.71307888350588    4.44765479798989
C        -1.87096864746230    1.51526974999166    5.12963743757782
H        -2.35044502321751    0.56431659227499    4.96558517421676
C        -0.57009660863987    1.49048889532837    5.64815197816561

