46
CSD_code = FOJNOJ | q = 0 | S = 0 | Stoichiometry = C15H23Br2CdN5 | MND = 4
Cd        7.98668224487168    4.02506150811448    9.08137901682378
Br        9.32712061977035    1.96899587590530    9.34557293436673
Br        8.08196959069851    6.29574255101978    8.02595935475349
N         5.73605060428563    3.24405063757751    8.77444920229999
N         4.56890185976364    3.87728310495993    8.93626634587325
C         5.49120039427184    1.95044247848140    8.92480081865769
H         6.28107139750685    1.22669519214959    8.83977987446126
C         4.13539512169810    1.73802735725875    9.18176767678658
H         3.63980041189102    0.80368325659722    9.34216316720125
C         3.57979572810272    2.99634759975309    9.17687834766573
H         2.56466683549522    3.30845829598909    9.31442055994933
C         4.45352862221295    5.32982852944759    8.84222301242938
H         5.34334317175472    5.69330224733554    8.31935040554295
H         3.56911623655143    5.54887079325116    8.23375520994670
C         5.51556619687133    6.26877971125984   10.84393600730075
H         5.33104034758895    7.10439494376043   11.52463626303607
H         6.32055235989813    6.54615521323409   10.15692353358675
N         5.98946843452075    5.14987315526021   11.64831830900804
N         6.98780373258410    4.35531586944876   11.24749155788654
C         5.51814127676887    4.75454623618081   12.84565090560046
H         4.73241291207068    5.28329496964456   13.34607707669440
C         6.23822622587955    3.64710991353670   13.23053917400697
H         6.13067292338089    3.07473781925433   14.12789311703188
C         7.14717972324204    3.43889187139212   12.19129189336647
H         7.89910223258398    2.67703617303975   12.09685314632627
N         4.32476130355702    6.02303250338183   10.08661193817993
C         3.09813386168986    5.78738972394464   10.83013428934420
H         2.31409743165274    5.58539738468296   10.09694590515122
H         3.17691943554172    4.90501113264383   11.48546452034303
C         2.65506473218150    7.00297852780245   11.65350301825003
H         3.39916749220042    7.21863467802132   12.42719576872236
C         2.50367857889032    8.23817823794354   10.76583143025675
H         1.75436630442091    8.03559017229237    9.99772073603264
H         3.44789727754869    8.44939808641596   10.26250632609988
C         2.06302018402638    9.44153089587046   11.59395465393622
H         1.94763422214030   10.31187460285072   10.94610396764277
H         2.83177997179450    9.67688983048550   12.33367059764933
C         0.74686744506633    9.14548532582956   12.30670157384403
H         0.45239774871686   10.00101984749842   12.91695921530437
H        -0.03666433689805    8.97869032383405   11.56431449085852
C         0.88171717761928    7.90538041819169   13.18521109478870
H        -0.07229395135100    7.68442738817375   13.66725567227313
H         1.61621660087057    8.09602085756701   13.97120879185038
C         1.32789964123140    6.70563003156691   12.35391485201439
H         0.56509030357201    6.48260625498237   11.60429799700402
H         1.43143937125579    5.82670847221400   12.99551624993424

