45
CSD_code = FOJQEA | q = 0 | S = 0 | Stoichiometry = C18H22Cl2N2Pd | MND = 4
Pd        3.61673927108296    0.48657156365193    5.30534532875409
Cl        3.71258529511805    2.01084745039099    6.90816447743365
Cl        1.38997013615778    0.59143488431979    5.40645341047997
N         5.63205770581055    0.29830728255123    5.15079701802057
N         3.69611493971858   -0.83016781248463    3.86525070300454
C         6.57898533565789    0.90570716334558    5.85921554419044
H         6.22941922946137    1.60332313378481    6.61224187657183
C         7.92560968527423    0.66636146637162    5.64989226883542
H         8.66115850908591    1.18011867450123    6.24687079030337
C         8.31027258549775   -0.24007077822582    4.66535012547022
H         9.35433588534576   -0.44395238145744    4.48416786910039
C         7.33294720489720   -0.87273489913731    3.92522337769704
H         7.58256377876312   -1.58210192880011    3.15176191538940
C         5.99019527929230   -0.58515858240287    4.18798852175296
C         4.88339010822902   -1.17347613616814    3.49029246559383
H         5.05027028309536   -1.88411067017502    2.68303319941823
C         2.54466347034967   -1.31135992163551    3.22532048596202
C         1.76392395292938   -2.26375428307459    3.89282967462798
C         0.61111894853644   -2.71491242023866    3.26906200298233
H        -0.00353041255842   -3.45779245532830    3.75005721125827
C         0.22956208085348   -2.20833495256825    2.04168734292611
H        -0.67655242061194   -2.56154711516957    1.57291680884421
C         0.98929065453172   -1.23610011090380    1.41689521208233
H         0.65391181778902   -0.83497180515419    0.47488693271046
C         2.16512069826594   -0.77253291355056    1.98647490412693
C         2.98270178788152    0.34054041866249    1.36183556718972
H         4.04795443880770    0.11201292580920    1.49425674796275
C         2.68346779042262    1.66403503719366    2.08095457278151
H         3.21071852436783    2.48142293657350    1.59320337851882
H         2.99825824332630    1.63615407192423    3.14020550224264
H         1.61575743717685    1.86848153305186    2.05533250204251
C         2.73746016034180    0.50112331276742   -0.13828557574110
H         2.83865763062544   -0.45175540341949   -0.65319527747029
H         3.46600361370928    1.19415522176420   -0.55370445910642
H         1.74701272511404    0.90463003161564   -0.33055230999862
C         2.20653692118099   -2.78947149468994    5.24088523476174
H         2.81946991830915   -2.00767240910268    5.73765294694530
C         3.07523631800613   -4.03696149306447    5.05122116319511
H         3.95638126516056   -3.81347403821564    4.45159793719488
H         2.50643150691049   -4.81572998046819    4.54689598494761
H         3.40310267281926   -4.41775825506543    6.01580703536536
C         1.02917142065143   -3.08159358274642    6.16863501187556
H         0.37559038578015   -2.21449353503119    6.21381651735536
H         1.39671502959489   -3.28938948224719    7.17098446474749
H         0.45934818724017   -3.94474826775277    5.83387358764933

