51
CSD_code = FOJTOP | q = 0 | S = 0 | Stoichiometry = C20H18CdN4O8 | MND = 6
Cd       10.51766862304296    5.13070653248930    6.84269964754705
O        11.38256336710716    3.40197090143326    7.71463219351380
O        10.69315268485941    3.70851972150965    4.84182224433248
H        10.92079934901964    2.85780562155262    5.24266442562476
O        17.34363235258717    2.89657324653573    9.11977541681862
N        16.82297113193752    3.90656217623602    8.67390152503260
N        12.61597481792101    5.63072526320091    6.79833483810256
O        17.44197872408267    4.94555439012368    8.49448217723372
C        13.35222150153396    4.71451669451681    7.45200234346743
C        14.74801772551018    4.87920876209582    7.66589994807842
C        13.18122230718673    6.71359727835997    6.31217533480482
H        12.52933174434768    7.41106955311025    5.79866875321931
C        12.63169127755786    3.53666055596816    7.91991686082732
C        15.43947347194317    3.85467397657202    8.37091070582284
C        15.33018602699896    6.04573767736867    7.12270084625101
H        16.38746425313492    6.21752604985027    7.24495114630362
C        14.55128490219633    6.95223579878268    6.44833077328292
H        14.98752541737429    7.84403307115863    6.02676558229457
C        14.74178919813548    2.72703156389737    8.80104284220212
H        15.30244216570391    1.96714783565019    9.32604111182676
C        13.39511464229521    2.56282843773325    8.59104562585721
H        12.88988669309199    1.67849466019034    8.94660675819077
C         9.69368693059550    3.48645574330765    3.85989365858220
H        10.07828828639803    2.84764659868231    3.05900178126397
H         9.43403633001074    4.45954229213001    3.44594128691044
H         8.79801198214008    3.02847398843016    4.29102348901131
O         9.65234636855405    6.85906181209106    5.97069936246356
O        10.34239788997250    6.55290743278604    8.84308217279836
H        10.11567451059642    7.40414814524593    8.44284528633286
O         3.69207044379175    7.36015579653985    4.56058801925834
N         4.21352497809087    6.34994777539958    5.00499931353036
N         8.41978604526395    4.62895028317813    6.88505169782293
O         3.59569853660519    5.30977757276222    5.18160124966483
C         7.68349328127897    5.54484373367742    6.23094455961533
C         6.28816647413298    5.37883980165090    6.01505138365695
C         7.85505112508253    3.54498859650802    7.36946763441572
H         8.50670249522343    2.84868521552844    7.88475505946965
C         8.40350068754874    6.72351242105701    5.76430327822503
C         5.59658572053676    6.40307406766821    5.30976806434219
C         5.70651561246159    4.21121984479200    6.55648145763286
H         4.64968712836622    4.03812759646289    6.43216588360801
C         6.48545598044978    3.30501527891065    7.23124649112494
H         6.04955162377577    2.41277399749437    7.65199327839240
C         6.29363420824013    7.53171268617216    4.88128528588134
H         5.73278948925615    8.29154937608566    4.35638902399973
C         7.63991047413942    7.69706399871430    5.09295312709944
H         8.14471659444094    8.58212119233174    4.73855950835626
C        11.34122758237118    6.77329212276787    9.82604463819818
H        10.95638485922724    7.41154636292986   10.62727432792854
H        11.59990399768187    5.79958873169748   10.23917645964601
H        12.23750798620532    7.23119776666130    9.39604212013317

