66
CSD_code = FOJTAZ | q = 1 | S = 0 | Stoichiometry = C23H31N8O3Zn(1+) | MND = 4
Zn        5.07024327243979   -1.95968726631588   11.11394794948941
N         5.92207330754893   -3.93940209528561   10.10078213901217
O         4.86759908500416   -3.42953719010456    9.67959213351897
O         6.34820111294856   -4.96434102840600    9.68147962752835
O         6.50917909850240   -3.29780076316538   11.00349028259070
N         1.13869528752828   -1.83325466893064   10.80681248208588
C        -0.05447845929655   -1.83853653616259   10.04099813391647
C        -1.11445931612210   -1.03761671025293   10.45877251082180
C        -2.30064724766412   -1.02690009280001    9.74912385968888
C        -2.44820871820249   -1.82205865712997    8.62414435565004
C        -1.40022355868887   -2.62618016686315    8.21136137473061
C        -0.20423955559049   -2.63420596481984    8.90969305923450
C         1.86246196794294   -0.60235546728200   10.91399153954298
N         2.75869415861370   -0.33813005779148    9.79865737653741
N         4.06074356174376   -0.70977871581811    9.84185152163792
C         4.60098902442217   -0.37821864293037    8.67027103392507
C         3.62986722289522    0.22392820863732    7.86554378528573
C         2.46552853460655    0.23113207562012    8.60678115725648
C         6.02080374399457   -0.64691563666981    8.34441401568813
C         1.13079527854669    0.76394783065841    8.24901409564946
C         1.94211277420074   -3.03635202532185   10.82506657706649
N         2.53948372806609   -3.20262140395345   12.12511837076958
N         3.79421823345949   -2.78404082951399   12.40381270091729
C         4.03379239459327   -3.09635015992353   13.67967449197404
C         2.90191487182423   -3.70148246074934   14.22786527958835
C         1.96482977278592   -3.75187181055152   13.21345152057125
C         5.33580533474685   -2.81476449835461   14.32812008030756
C         0.58330813105858   -4.28311257721902   13.20946756723162
N         5.51583961218851    0.78819853921588   12.04032925780843
N         6.10834198863457   -0.42610638644519   11.98613200804162
C         7.31102231204591   -0.27570690090854   12.54177341580504
C         7.47512692621961    1.05621682920520   12.94852304575980
C         6.31352997213970    1.71350957585057   12.60758800326541
C         8.30728509438086   -1.35995797065190   12.69394897618613
C         5.89874356750256    3.12388883441601   12.78417271813611
H        -1.01128968764704   -0.43438312325678   11.34863539400525
H        -3.11599389733326   -0.40394479592527   10.08263241988749
H        -3.37597863718508   -1.81644825551495    8.07480352701933
H        -1.50616541478248   -3.24685010637134    7.33517311970034
H         0.61136076287401   -3.24897944412450    8.56052718158396
H         2.47934645892476   -0.62114303040372   11.82078832922381
H         1.14692379241862    0.22044561073472   10.97891639237142
H         3.76168808491347    0.60001348873484    6.87277648162298
H         6.59829840740569   -0.85256145368010    9.24589845097096
H         6.45654775192274    0.20267507571869    7.82357237149724
H         6.08559257513717   -1.51174344291085    7.68432790838079
H         0.40771540983979   -0.04160149256381    8.13114859727815
H         1.20103297221189    1.30410663760766    7.30970862020777
H         0.75688410094838    1.44207519530691    9.01502830039226
H         2.74808652724413   -3.04155697266341   10.08109102935256
H         1.28367762161810   -3.88806357402731   10.64163407301096
H         2.78770105125051   -4.06290880287138   15.22836692865851
H         6.14921404553395   -3.04933606556389   13.64550221888443
H         5.43617225806348   -3.41379032328302   15.22852603669264
H         5.40864968041585   -1.76307246007409   14.60337350971258
H        -0.11572278509881   -3.54051191333191   12.82840741664880
H         0.51450749971035   -5.17015987869742   12.57985360638467
H         0.29517017582278   -4.55864256961504   14.21931630012401
H         4.61022156060819    0.93783210763139   11.62590141380800
H         8.33848150521423    1.47265209499367   13.42313936760412
H         8.02572865075771   -2.23928470471307   12.12625344233442
H         8.40456268370208   -1.62990502023341   13.74457040808273
H         9.27993717537823   -1.01023322628885   12.35510496563357
H         5.48383498147223    3.52414088847835   11.86077429808073
H         5.13933783621944    3.20462931919180   13.56165530409651
H         6.75300433740143    3.72621502848471   13.07712613964001

