51
CSD_code = FOJTUV | q = 0 | S = 0 | Stoichiometry = C20H18N6O6Zn | MND = 6
Zn        0.67474972407173    1.35811192074665    4.39074691553263
O         0.65504626334551    2.38979573768407    6.10609944665914
O         4.95784052449216   -0.50547773333088    9.66223063564293
O         4.51781611944885    1.28736682877057   10.75346416331798
O         0.68043969051251    0.32670136603379    2.67496585212183
O         4.83658150078428    3.38778954010693   -0.91610355823783
O         4.45859198022815    1.57878054023490   -2.00403068716898
N         2.12277315732048    0.27410576921580    5.41940610217432
N         4.36845027571276    0.55881834408649    9.78490851371253
N         2.07347925880802    2.49549065000263    3.35172340996498
N         4.28879687446495    2.30096884088603   -1.03406417491893
N        -1.01771829273784    2.57723536339564    3.77086411161675
H        -1.08503763653561    3.27460500295387    4.50708671693962
H        -0.92944954000701    3.06599085509154    2.88652088982272
N        -0.96647985344438    0.07709350480527    5.02255891075987
H        -1.01364869257534   -0.62181444387898    4.28621855254924
H        -0.85356895590062   -0.40866016050473    5.90575090262425
C         2.83520052090296   -0.75786035019095    5.02744362448300
H         2.60948933141200   -1.15610028161491    4.04815565376753
C         3.83519215418513   -1.31196816486727    5.82832258179817
H         4.40844615120016   -2.15090817816616    5.46717297955414
C         4.07773739471332   -0.78165935944169    7.07085955240612
H         4.84166010287234   -1.20088660017046    7.70553260782483
C         3.31919272302302    0.31866701710057    7.52590127244993
C         3.46141262068957    0.97610714940871    8.78043038522359
C         2.67210167845979    2.08959561985389    9.06526845082013
H         2.81506521389316    2.56553206097063   10.02472688037175
C         1.73485908000387    2.58046715944241    8.18974145347428
H         1.13978535003549    3.44135932929085    8.45096076841897
C         1.52021399792821    1.97438636932369    6.93904237453961
C         2.34563874128707    0.82307510214969    6.62504454185688
C         2.75036716794079    3.55284661469884    3.73896457841439
H         2.51859606645958    3.94132563344934    4.72075880833153
C         3.72201981183255    4.14474490766814    2.93026942389735
H         4.26688324978108    5.00391052454915    3.28778648795970
C         3.97302852517843    3.62551382480324    1.68474143199615
H         4.71507013372550    4.07375589405560    1.04395783829885
C         3.25188428111272    2.49834075740600    1.23464789118874
C         3.40734428227168    1.84832538285999   -0.02215027993123
C         2.65806925839668    0.70621258956879   -0.30167591504713
H         2.81015103146445    0.23727105194468   -1.26317321681507
C         1.74793254688019    0.17931819804576    0.58148586771812
H         1.18330649956778   -0.70303374164910    0.32432119495746
C         1.52184885447828    0.77541570320929    1.83497719052552
C         2.30607747033177    1.95662849281644    2.14336198135171
C        -2.21270446596469    1.73966492556342    3.77504495068839
H        -2.17520523881842    1.09623901813123    2.89300626104191
H        -3.13888791317138    2.32811904188538    3.74845984262237
C        -2.19156729139712    0.86995724081573    5.02829286859718
H        -2.17051661698838    1.51453017621460    5.91004455707323
H        -3.09515511168046    0.24770496457432    5.06242840702705

