51
CSD_code = FOJVEH | q = 0 | S = 0 | Stoichiometry = C20H18CdN6O6 | MND = 6
Cd       -0.98617191422729    1.05353538101859    3.89427767645119
O         1.15112146879821    1.05374515478115    3.74411212429323
O         3.19766278070600    5.21715296612165    8.00570489974783
O         4.93208915256252    4.79593662360725    6.81684122834169
N        -0.37833504883486    2.53280256213958    5.42391489482568
N         3.74512199229612    4.65270695058607    7.06849658149127
N        -0.92374796638094   -0.77613418095000    5.34395982352710
H         0.02969799818344   -0.90487428519335    5.67736294088240
H        -1.53085882351608   -0.64570634466651    6.14827055244943
C        -1.15105580464577    3.24769351571744    6.21281755294619
H        -2.21609331506422    3.04996031437718    6.15781805776164
C        -0.63433376751760    4.21704135507707    7.07532954901510
H        -1.29914525335486    4.79480808339846    7.69776471415770
C         0.72153123804244    4.42352831176278    7.11988250741118
H         1.13995343449458    5.16281552211228    7.78364408526046
C         1.57993422479875    3.66272884045769    6.29623373213677
C         2.99699590149436    3.78356280545712    6.23937108313831
C         3.71512200536514    3.00770441576119    5.32920809193658
H         4.78795780470250    3.13439936049821    5.30808463864551
C         3.11468484856453    2.10323737063772    4.49129450230623
H         3.70611063530887    1.51618801168343    3.80590503307621
C         1.71955768477536    1.90133414570332    4.49931697561813
C         0.95411969359756    2.72104802191571    5.43379269887085
C        -1.34419161399366   -1.94187015304022    4.57090428575583
H        -2.42216085158348   -1.86131102732023    4.40325074446559
H        -1.13433512077318   -2.88711787376456    5.09235471498162
N        -1.04827550140153   -0.77675292016064    2.44535036508421
H        -2.00168632061902   -0.90559839858652    2.11189260284445
H        -0.44107421107412   -0.64666381122910    1.64105458004055
C        -0.62795210129465   -1.94219912653916    3.21890970311166
H         0.45002508441138   -1.86168346548934    3.38653607878114
H        -0.83790011118959   -2.88764850685968    2.69786042668488
O        -3.12343348898136    1.05338514805506    4.04487190639167
O        -5.17136333001712    5.21850429151263   -0.21446749178869
O        -6.90520750586086    4.79722571665286    0.97521435610164
N        -1.59459221119765    2.53217840222031    2.36430111410229
N        -5.71843954221051    4.65374778345854    0.72277671595290
C        -0.82215469623729    3.24684082860914    1.57491328331571
H         0.24285814440558    3.04879190088347    1.62924348159604
C        -1.33912801262625    4.21640057149742    0.71279013231468
H        -0.67454354572385    4.79395641783819    0.08991682728634
C        -2.69494955918115    4.42338746699660    0.66918883581591
H        -3.11355738424342    5.16283993459411    0.00573195388125
C        -3.55306668010491    3.66282616243786    1.49335676231661
C        -4.97005518595062    3.78410349328278    1.55114954191130
C        -5.68785762358654    3.00821388705849    2.46154270453926
H        -6.76064620277728    3.13521514831899    2.48334559650947
C        -5.08717620257942    2.10340967939449    3.29891439727650
H        -5.67836077319787    1.51635931812083    3.98451089680243
C        -3.69209968866161    1.90120231571444    3.29009744502873
C        -2.92699473389687    2.72084191434489    2.35528409466027

