41
CSD_code = FOJWOR | q = 0 | S = 0 | Stoichiometry = C14H20B2Cl2HfN2 | MND = 12
Hf        6.49340881637370    1.82665113759405    3.52911411113595
Cl        7.85328233875180    0.20412906356449    2.56492921858706
Cl        7.96097125797534    3.49816812737965    2.84701690318854
C         5.65868809272444    1.98413273097556    5.75455915724218
C         7.96603634286616    2.09741514988349    5.70425679650007
H         8.97201168384818    2.48371282045359    5.77995106030414
C         4.13763197686225    1.69491099110934    3.18273448072667
C         4.65015983835064    0.76375607022835    2.23204543940349
H         4.47780203779081   -0.30504019874833    2.23452788861960
C         5.30705247370220    1.47186713429981    1.20230562175345
H         5.72439532085128    1.03757169227122    0.30557001054973
C         6.19818961111717    0.66069284678423    5.58649543841677
H         5.62562721440159   -0.25581337952313    5.67426256783777
C         7.61069771452536    0.74345667692316    5.60905534314040
H         8.29437858282544   -0.09297651409082    5.62958302610530
C         5.23836913608184    2.84150166817504    1.49701501234779
H         5.56771398556721    3.64465466378498    0.85355893580816
C         6.78233875939592    2.86133014072111    5.78425773194977
H         6.74777155568306    3.93221319138144    5.93858005355137
C         4.56786037263890    2.99144091353063    2.73483818100950
H         4.22858788913544    3.93368783600131    3.15025615629892
N         2.33128755574792    0.52813254407394    4.61167747299330
N         3.58099367455882    3.25556357352615    6.61723049002630
C         1.76164669689707   -0.19044519406278    3.49144522739156
H         2.12952482874647    0.22356016437403    2.55751590980809
H         0.67133849600449   -0.10494271453416    3.50865318738586
H         2.01677679074745   -1.25373707565725    3.53864333916737
C         4.30895870378367    3.96347508775046    7.64899764043960
H         5.28251391192821    3.50655235971966    7.79827100756307
H         3.75422025217951    3.92368255660376    8.59085468945810
H         4.44288706024286    5.01622217544630    7.38124598059557
B         4.11698280692034    2.29625252788321    5.76965686426741
B         3.36556690687880    1.44955391599993    4.53191616954640
C         1.69450762690597    0.15307695473152    5.85543488630259
H         2.16119487059380    0.67789095470088    6.68383394588656
H         1.79148545158312   -0.92413247394189    6.02105741120535
H         0.62698190607314    0.39401307079142    5.83236609400667
C         2.20116790868065    3.68645285469715    6.55778826239755
H         1.68491667083422    3.16780358970168    5.75528274367379
H         2.14817139332504    4.76357554962021    6.37283888953349
H         1.69050148589935    3.48328681587615    7.50447665387477

