29
CSD_code = FOJWIK | q = 0 | S = 0 | Stoichiometry = C9H12CdI2N4S | MND = 5
I        -0.71540652762222   -0.94562248673771    4.39039371044083
I        -1.28367864641724    3.22002904810954    1.78729074852003
Cd       -0.31857789036748    1.64018144617115    3.79826789218170
S         2.52600147861990    2.05578188442532    3.38538719460982
N        -1.32908246917856    2.63765071110822    5.89400384690017
N         0.64409938119878    3.93997303675020    4.63161554188355
N         1.46156722258807    4.45971532935355    3.71120517914787
N         2.97529778002309    4.25266067139731    1.99701465233681
C        -2.10127706392344    1.92800442961361    6.70119278674891
C        -2.67093003542022    2.44748535430018    7.85437667670336
C        -2.40922551885192    3.76833777124144    8.17900917455917
C        -1.60361102236841    4.51678811078357    7.33860103375346
C        -1.07803986439108    3.91814480364019    6.19400314202466
C        -0.21721753901329    4.65204933563364    5.25670579124463
C         2.29995085153979    3.65074012802476    2.98930492045652
C         3.81504367805772    3.52136556324064    1.07947906713013
C        -0.41526489285807    6.12387802972777    5.03581952734898
H        -2.27400213526600    0.89731909943848    6.41541440745899
H        -3.29690347843101    1.82961017139847    8.47723796066324
H        -2.82334801759664    4.21092593578996    9.07250499153184
H        -1.36462972305574    5.53993429880926    7.58191284101604
H         1.31908390687552    5.41855785857171    3.39145730336419
H         2.67074416577268    5.16619928715181    1.69033529125768
H        -0.61287107314209    6.30832430777736    3.97749714025780
H        -1.26695637079736    6.49314479369505    5.59592965589293
H         0.47257817570157    6.68567903238029    5.32848152057744
H         4.53527762808968    4.20473941691069    0.63645011387814
H         4.33853646495275    2.74079556170547    1.62846922902083
H         3.22284153531766    3.05300706962263    0.28883865907161

