69
CSD_code = FOJWIL | q = 1 | S = 0 | Stoichiometry = C24H38IrN4O2(1+) | MND = 6
Ir        1.19554646288531    6.37931998437772    9.07604855512217
O         0.52720665613633    6.23759683697641   12.04158822262337
N         0.33733540387309    9.08067987207846    9.76677336045080
C        -0.21984994637564    7.92587245456128    9.35990492029435
O         0.04354888630345    4.00303416207226    7.56298705874104
N        -1.54879012038561    8.16425854912838    9.25510892593613
C        -1.79604497669043    9.47016804954080    9.58261134723160
H        -2.76721917309351    9.91224332947287    9.57026300356311
N         3.37668441572171    5.52008112098042    7.34031093804152
C        -0.61451657980935   10.04327178084518    9.90554570892845
H        -0.40430090008690   11.04490729974106   10.21472422261051
N         3.73143922263575    4.30353462671835    9.08768272696181
C        -2.60134322006356    7.20903704973679    8.86662594715182
C        -3.98451683896177    7.85129349433268    8.99317898914866
H        -4.18201170115300    8.17563170668508   10.01194945812851
H        -4.73429702189897    7.10993937966489    8.73089213782283
H        -4.10225245715536    8.69008710736673    8.31191510936308
C        -2.55103297509543    6.00013136103256    9.80441635975959
H        -1.61620443488379    5.45562793037373    9.70576907828868
H        -3.36610857199626    5.32201664769511    9.56947739091720
H        -2.66023093148293    6.32100892592151   10.83808614270316
C        -2.38590936151999    6.80509004319772    7.40733032288051
H        -2.44297287646560    7.67946828151130    6.76285746579730
H        -3.15415598120060    6.10110119086829    7.10182505618886
H        -1.41543579627783    6.33962185492989    7.27226860314719
C         1.75682135538310    9.24970571720157   10.07716073387835
C         1.87083545487613    9.59386585982303   11.56705699921308
H         1.34533763394115   10.51672783788024   11.80029794571542
H         2.91590561030683    9.72462970814519   11.83335364640641
H         1.45397443737788    8.79767782103912   12.17985608181152
C         2.30282892585090   10.40692932608878    9.23442017579348
H         2.14364825588911   10.21813766460868    8.17515244284740
H         3.36905060113125   10.51552361912958    9.41211052004106
H         1.82230807516412   11.34729446489388    9.49238975155497
C         2.49402085116195    7.93339272387100    9.75657637996322
H         3.07586665569534    7.65747251804147   10.64118760734358
H         3.24120034829077    8.14502741715001    8.98807181608270
C         2.90195534064715    5.23869789181793    8.56703053845989
C         4.72091879073204    4.02973423785792    8.18220068963925
H         5.50904323560118    3.33165839422583    8.35632886091483
C         4.49659932346361    4.78983707766014    7.08643581313782
H         5.05028901678068    4.85116173599806    6.17390313168827
C         3.62476143439792    3.64433871971461   10.40120776230662
C         3.85315994955329    4.68668645101244   11.49685789536104
H         4.84262308905286    5.12717980924584   11.39655525014469
H         3.78232832615551    4.21725530813435   12.47347537883344
H         3.11491065089333    5.47935185195800   11.43888887598700
C         4.68639077548287    2.55133199141412   10.54256571791879
H         4.58335926495816    1.79299212846428    9.77030900139813
H         4.55374040353779    2.06399474617103   11.50458312659922
H         5.69234390597735    2.96259731135745   10.52079570609837
C         2.24719503938398    2.98740429130555   10.52028461601751
H         1.44922216843881    3.72423492040611   10.49945219848366
H         2.18262422736684    2.44240080937476   11.45739332524277
H         2.09398646749603    2.28435660834665    9.70444495597778
C         2.73011842881008    6.42791655521315    6.39290481278819
C         2.28268784574286    5.59666520277754    5.18447187495318
H         3.13019914599259    5.11675956609372    4.70097169080384
H         1.79893201524099    6.24088582700297    4.45570562892301
H         1.57836327647509    4.82477203926188    5.48645809474302
C         3.75349331847348    7.47813030323271    5.94896972398410
H         4.15514961551946    8.00961366700488    6.80875922989418
H         3.27505355627778    8.19600953214380    5.28868931311096
H         4.57978934950042    7.02418410871699    5.40780992241340
C         1.52215918460598    7.08952290021520    7.08726026530711
H         0.65578937544026    6.96454564033576    6.43076892266064
H         1.69787840412011    8.16751640236671    7.11245019227595
C         0.86167275677745    6.10525735280096   10.95847570437028
C         0.28409692903479    4.92499890069851    8.19111662707456

