75
CSD_code = FOJYAF | q = 1 | S = 0 | Stoichiometry = C30H40N4Rh(1+) | MND = 6
Rh        7.30187193415339    7.80699381621901    4.94635262530717
C         6.75382143176327    5.84661789954384    4.43503014636896
N         7.03036395509193    4.83039632390357    5.30345671191780
C         7.77318787820695    4.84338160336207    6.45479797164948
C         7.94351054021366    3.71213125155323    7.17440870327086
C         7.35819181683017    2.48439569331855    6.75838898642196
C         6.62023386767450    2.44845033640260    5.62142208849192
C         6.45282493695604    3.63788552973529    4.87422150330259
C         5.80511228309949    3.94159585366902    3.70960520101217
N         5.99272518198661    5.27060078708883    3.46619539651252
C         5.51857292283912    5.91441527370908    2.23140480412441
C         4.46500396684002    5.05767799261532    1.52678722874742
C         4.88910214349905    7.26257246486836    2.57289016423258
C         6.73071055887351    6.08268379697002    1.31021956171872
C         8.71944906806148    8.01506050934756    3.41256634942779
N         8.49634428906686    8.92383063797032    2.41871768486893
C         7.37765241534201    9.66853676091483    2.15128827505809
C         7.35071010073550   10.51148497743091    1.09518900829318
C         8.47763040813830   10.64820722549610    0.23824681602051
C         9.59469743594161    9.91980960846023    0.48356511681562
C         9.60936938428760    9.03748254333376    1.58918555672596
C        10.53626295273989    8.17088244899589    2.09714328749387
N         9.98620649999861    7.57178859580241    3.19221575339521
C        10.67378555571859    6.49690598325829    3.92422817323634
C        12.16733143024714    6.46653170901754    3.59427499638835
C        10.51982461273116    6.72786807463750    5.42532418025157
C        10.03514756927156    5.17226852316725    3.49566865944500
C         7.42524924251131    9.98805051943666    5.35324074203885
C         8.34614147456468    9.31872063372908    6.13165105158272
C         8.19178624881667    8.99698826557282    7.59676583931799
C         6.80684646938012    8.44110489663554    7.96875520171615
C         6.19163236317751    7.61628983016291    6.86170580596592
C         5.35367967052558    8.11815819821055    5.88805223637294
C         4.95085476756887    9.56298642883416    5.73279135104653
C         6.12066907433228   10.55254870013043    5.86680173883220
H         7.81764405888618   10.50589548987020    4.48154949040615
H         9.38618178875432    9.36752131470524    5.81109560659415
H         6.06328345843079    6.56628346607310    7.11275487329266
H         4.63379225940920    7.42397421311621    5.45594445593044
H         8.19745379801710    5.79030266147951    6.74824417901861
H         8.52895337118903    3.74037125833685    8.07834006163261
H         7.50895174606050    1.59923261279881    7.35350105090097
H         6.15436977893107    1.54694576750366    5.25964653167254
H         5.24454276419706    3.29111429718793    3.07710040376450
H         4.04832511661263    5.63408920854141    0.70507754708419
H         3.65144622399073    4.79866028948499    2.20052570094870
H         4.89052833880407    4.15014466718429    1.10669846132056
H         4.72157746665013    7.83527913300897    1.66563273700463
H         5.55733408905435    7.81577561746026    3.23550966820686
H         3.93365498951634    7.11714593600629    3.07206235356699
H         6.44057903188121    6.59090741037761    0.39569542036736
H         7.50107895058049    6.66173735061320    1.80926615987292
H         7.14324526115303    5.11043303655827    1.04923803262957
H         6.54275088393429    9.54885501727945    2.82315565733093
H         6.46376306828377   11.09114944106333    0.90037675121817
H         8.42814466452656   11.32990231497463   -0.59439463586545
H        10.47639041620392    9.98349313680714   -0.13219518610456
H        11.51943267783042    7.96980261383861    1.73608795561611
H        12.65049325381978    5.75494449234181    4.25856664722066
H        12.62696826759629    7.43920491151894    3.75396174905274
H        12.35402748767537    6.14056292368522    2.57444646205804
H        10.84057775917695    5.84626966276828    5.97215908252045
H        11.12861779346954    7.57207329378181    5.74140685264555
H         9.47305862753281    6.93770986892211    5.65304540906891
H        10.48274677097605    4.34557588178993    4.03885913120258
H        10.18651191860826    5.00837112597250    2.43086103900862
H         8.96825030620885    5.19116235709870    3.69364899216040
H         8.39474446733185    9.90567728111374    8.17284194267976
H         8.95947477597563    8.26995705643305    7.87607644936005
H         6.12661000708945    9.25303853478589    8.22631682124087
H         6.90963613295641    7.81656059140235    8.85794602931996
H         4.18435500756735    9.78979348173098    6.48104637809560
H         4.48114949585154    9.68989971964875    4.75334161567237
H         6.24881263433542   10.85285115943375    6.90690795798369
H         5.88023663980937   11.45462770971159    5.30129524700474

