80
CSD_code = FOKDOB | q = 0 | S = 0 | Stoichiometry = C38H33N4O3PPd | MND = 4
Pd        8.29093346491661   10.13300453528413    6.79633321969792
P         9.12094350621945    9.34303763329051   11.92939318297795
O         9.48641762407729   10.81076673699414   12.47307617088977
O         7.66862776291539    9.19375722962133   12.60052303021801
O        10.06712932677395    8.31663825239310   12.38215615934600
N         7.57410439426935   10.91526121948392    8.51328147431404
N         7.15780971987416   11.43878393918957    5.73604698211455
N         9.41380203740155    8.82667568130681    7.85766146096713
N         9.00903501524938    9.34640905037925    5.07167999899248
C         5.65856135030666   13.06808351746423    5.15045724087828
H         4.92626316240748   13.84255621198931    5.26740220764532
C         5.12612746623926   13.72214120724672    7.92709689276845
C         6.14119074345356   12.53835234815562    4.00274969706861
H         5.89189378648707   12.79678123382689    2.99176246756859
C         6.30775469345521   12.37913293401397    6.23321354010351
C         8.82724146090187    9.54619047490520   10.13181236251333
C         7.92766026155354   10.55276521707276    9.77967155398854
C        11.45136821662870    6.54702441248506    5.65172318436002
C        10.44396619671159    7.70899563238271    9.57070140666868
H        10.70852373803224    7.43820757509418   10.57024595652639
C        10.49538843795976    7.62205012293181    5.99423998470681
C         9.51053907876311    8.74509727301342    9.21835264322260
C         6.07055889083266   12.63717335521896    7.58536940578993
C         7.07885175237430   11.51803964952005    4.37658926742724
C         7.77825970983602   10.73578905061606    3.47223485099756
H         7.61053097437890   10.92134439615879    2.42104204633455
C         6.67822012315491   11.94131231873526    8.62819984553520
C         4.53348533839675   16.05533456082681    7.90519024861977
H         4.77457600914294   17.07454296334307    7.63816945118623
C         5.41437825746922   15.03990569941660    7.58627093996364
H         6.34091047724732   15.26493612420835    7.07810526814782
C         6.46777267781648   12.23883169023201   10.01914801497459
H         5.82529506727745   13.01273857911966   10.39037969022825
C         7.23345764201950   11.38043381011295   10.72885160082794
H         7.33064266017512   11.30985237916361   11.79199848183694
C        10.25201865270921    7.87886814948111    7.34191485853940
C        10.90319054502862    7.17946658023931    8.41570087359903
H        11.62416017775874    6.39612230308126    8.29047494939857
C         8.66788510249769    9.72869217322050    3.80733171276222
C        13.26594463106198    4.51518363031683    4.99698872022043
C         9.36175123396784    8.91496510071245    2.84958402117060
H         9.26453081591784    9.00912782065066    1.78528671614109
C        10.11908965945818    8.04109158819158    3.55174138156638
H        10.76147431279828    7.26862754942520    3.17708201765494
C         9.89779110536975    8.32314367116750    4.94485277234353
C        11.17115069560105    5.22058646838626    5.96120403698770
H        10.23952851855186    4.97589951287545    6.45041637157444
C        12.06685453827092    4.22008139205672    5.63344877894811
H        11.83073458183305    3.19352306252887    5.87529221791499
C        14.25000440590353    3.43486254804921    4.66724895133376
H        14.99914091554805    3.36110538619357    5.45647945181813
H        14.76718259904353    3.65288807929252    3.73535429673497
H        13.75520716925617    2.47053100947536    4.58042969609811
C         7.22224506729346    7.87466091121376   12.87131952261535
H         6.38527475351445    7.98724206384281   13.56599578596045
H         8.02795539082167    7.31429370153831   13.35703564676756
C         3.93470460106169   13.44796054755940    8.58995727047967
H         3.69560979821305   12.42705739633598    8.85024202290286
C         3.33988889512219   15.78499853379600    8.56405481640356
C        12.64878678729718    6.84635023946817    5.00982777644468
H        12.87937623269606    7.87458966910252    4.77131351811838
C         3.05407863185747   14.46741549298593    8.89954413781345
H         2.12917364321793   14.23636869876484    9.40878810717859
C        13.54343239319252    5.84262031906713    4.69206805541335
H        14.47247191844219    6.09192885772045    4.19918945247632
C        11.45411982799443   11.42455696397818   11.18398933513262
H        11.45444256318959   10.51213995790153   10.59020820555360
H        12.47532597719567   11.78229759817964   11.28582132270253
H        10.86066736884835   12.17654069890222   10.66839101297007
C         6.78835813831758    7.16273534381328   11.60064541037904
H         7.65124178532927    7.02441398127266   10.95135405382584
H         6.04521113863493    7.75617478176256   11.07262722442255
H         6.36535512702780    6.19140741120138   11.84331449843714
C        10.86356494828755   11.13985403724140   12.55553948300207
H        11.40314172302246   10.31411733242001   13.03145555400137
H        10.91260986450658   12.02503542800121   13.19584119307194
C         2.39804682063134   16.89314566896917    8.92340972640956
H         2.68757736844830   17.33185041752644    9.87908797601801
H         1.37961943946536   16.52370611730428    9.01696614676474
H         2.42175911106127   17.68062478958408    8.17335099054886

