86
CSD_code = FOKDER | q = 0 | S = 0 | Stoichiometry = C40H33N4O7PPd | MND = 4
Pd       13.79017008919009    9.29905079067434   10.78323133638665
P        13.16965306400846    8.73119283240791   15.96945517580061
O        11.94729616268328    9.17361251156562   16.64917221659230
O        14.49468357390209    9.45569284465843   16.50153547237684
O        13.45215570385521    7.15608303318436   16.22220374212974
O        22.23708275121836    4.15958399282274   10.89518812241331
O        22.88137178465890    5.89353919721965   12.16164450330270
O         5.44242740568932   14.58703757026447   10.63085609621445
O         4.70973645742219   12.78275642425519    9.52053519573204
N        12.34380048033975    9.81552765910425   12.10121264417499
N        12.68303549921263   10.06397136778015    9.26732069187705
N        15.24549759215435    8.78514439428703    9.46727534660310
N        14.89037747608764    8.53427153481185   12.29317801287893
C        13.35365283889674    8.95876003333288   14.16945608791433
C        12.34064019948303    9.58851616342670   13.44878086889234
C        11.11849602859219   10.09327415974436   14.01661436960779
H        10.86013171878773   10.04435974869957   15.05219780495621
C        10.39721381974696   10.61865399196572   13.00287561910663
H         9.42713287410864   11.07246846988373   13.05010343888612
C        11.17081290174988   10.44827057201329   11.80242928900941
C        10.73648692663733   10.84927882577636   10.54097986543623
C         9.42282936748735   11.52140359230366   10.44005245328995
C         9.22548173793516   12.77474697302656   11.01519323760176
H        10.04295923709378   13.25404561068251   11.53295097563362
C         8.00065772509477   13.40165500558989   10.91404376834481
H         7.83413924475046   14.37492243279630   11.35032333093797
C         6.94759875305818   12.78264955225136   10.24322132320993
C         5.64926840627806   13.49160119869124   10.16804527777878
C         3.43756959677996   13.40124895499881    9.41244179174754
H         2.79712505397085   12.69222342841615    8.89399330102066
H         3.51507345305080   14.33313926027584    8.84808886370669
H         3.03926270409916   13.62580970898764   10.40426759127108
C         7.13998062415145   11.52820862708570    9.66950868234639
H         6.32378853592157   11.04842809837704    9.15282589271875
C         8.36969095417127   10.90794666066786    9.76524617330730
H         8.52173206380760    9.93315330105434    9.32542302554714
C        11.46196866004293   10.65708784358774    9.36323250996196
C        11.03091837558666   11.09746722231450    8.06302049817971
H        10.11122777786105   11.61082090488801    7.86214777479675
C        12.00393614428109   10.75071611844202    7.18946416679280
H        12.03894687320071   10.91451207731289    6.12990692619324
C        13.03678809287706   10.10558775611401    7.95022122067504
C        14.21502359874852    9.62121296346221    7.40725243562308
H        14.35299193973715    9.73050092257447    6.34123514380740
C        15.23574508641208    9.01726179160415    8.12302731960994
C        16.46114463968881    8.54933006284743    7.53974117092388
H        16.70616859528635    8.61857198344475    6.49771885730992
C        17.20512437124413    8.03662587595961    8.54682802959610
H        18.18706352243146    7.60924672121123    8.49389268372470
C        16.43164333830291    8.18025860541304    9.75122348047207
C        16.86148660878122    7.77756169100922   11.01786581532727
C        18.18475183841111    7.12748413143673   11.12590610433959
C        18.42055088912552    5.89974310382353   10.51098286190401
H        17.62415426772508    5.42192092776415    9.95984457594990
C        19.65491819067052    5.29289638872858   10.61821568326508
H        19.85045930723382    4.33918915564116   10.15175448773428
C        20.67921912672577    5.90569002943856   11.33745908362934
C        21.98735362132946    5.21637844910472   11.42274239242965
C        24.15878357610974    5.28972675056094   12.28881079776903
H        24.62849843536380    5.18509077609534   11.30843528411827
H        24.06762702007169    4.29922431161100   12.73969656019107
H        24.74489508216093    5.94776203981307   12.92520448823442
C        20.44927560773455    7.13541091747043   11.94981128552171
H        21.24355253386555    7.61095066004394   12.50326563267214
C        19.21106387954423    7.73663909608318   11.84518889931668
H        19.03013800045297    8.69251750488542   12.31435614121845
C        16.12054459395777    7.94914020967862   12.18531766307252
C        16.54632276120404    7.48669948583835   13.47888903765272
H        17.46574025735862    6.97134406528033   13.67561518867901
C        15.56997161041606    7.81083687762476   14.35475015281732
H        15.54023617238873    7.61983304792983   15.40605481522866
C        14.53387616407727    8.47036530624789   13.60759656967322
C        12.35196186741695    6.29512934171326   16.48687879868873
H        12.58293041789162    5.34972838018784   15.98619266067040
H        11.43902719546193    6.71775820689416   16.05858182089609
C        12.16806615969609    6.08826898656119   17.98143955599695
H        11.36577993610139    5.37696746380120   18.15809918540878
H        11.91166026159481    7.03625407288682   18.44755422729177
H        13.08527499734998    5.70702258668780   18.42438470825709
C        14.50742195745683    9.96379949827246   17.82951813599930
H        13.49285662815601   10.27278229909232   18.10296801759705
H        15.16123234162119   10.84049625801142   17.80666376292906
C        15.02510413822231    8.92546644287556   18.81069943852336
H        16.02096138352022    8.59953459847545   18.52013971204979
H        14.36289382706462    8.06363943902802   18.81459532203305
H        15.06600552194648    9.34981812714923   19.81043732650291

