86
CSD_code = FOKDIV | q = 0 | S = 0 | Stoichiometry = C40H33N4O7PPt | MND = 4
Pt        6.23671064302327    6.82058812772020    2.94988613412786
P         5.63598389222377    6.27836837147552    8.13878231554040
O         4.41996529059611    6.73719033406347    8.81898043538786
O         6.96769948346650    6.99846847091776    8.65838391741016
O         5.91316289190821    4.70525979729305    8.40725137915074
O        14.71801164516641    1.74767955748378    3.03495790620780
O        15.36828327234872    3.51463550467832    4.25170024073074
O        -2.08865540598610   12.13006970645250    2.81182302734994
O        -2.81238808721992   10.35884568439112    1.64394533667335
N         4.80095635714056    7.33165325929706    4.26083579211637
N         5.13508472594337    7.57973500484533    1.44510069786766
N         7.68097509653801    6.31190308219982    1.64124889501221
N         7.33274559550723    6.06364122162200    4.44993575219312
C         5.80848573401793    6.48739582802430    6.33405348577475
C         4.79627419850258    7.10829498834090    5.61085393182405
C         3.57437066935896    7.60700809074913    6.17881341507687
H         3.31772377499436    7.55678210899059    7.21457926574422
C         2.85088591302089    8.12936384197416    5.16572552217172
H         1.87892312623497    8.57889568380423    5.21174147059513
C         3.62440145083670    7.96245997920145    3.96738508598595
C         3.18781909569816    8.36877022988491    2.71178072938842
C         1.87717322584537    9.04628706663307    2.61212091475336
C         0.82489789775834    8.44512702189496    1.92506450309822
H         0.97388817022879    7.47326852838047    1.47786237740053
C        -0.39985162684523    9.07445467300750    1.82498937390970
H        -1.21474402441506    8.60501733453330    1.29685452457887
C        -0.58861032258557   10.32496186366293    2.40834062691480
C        -1.88045124401941   11.04497854269581    2.32582175256502
C        -4.07770200095415   10.98970310476336    1.52653310528624
H        -4.70362245127434   10.31248154356752    0.95103029380799
H        -3.97753121286292   11.94935318809517    1.01486482705636
H        -4.50803809542326   11.16432498317901    2.51498745237138
C         0.46257892067233   10.93008534602408    3.09453168737011
H         0.29886046260282   11.90011581285696    3.53894456242568
C         1.68300899481715   10.29507600222385    3.19803478789286
H         2.49970943343658   10.76472755483334    3.72569904938150
C         3.91436597825399    8.17726984890851    1.53861780737031
C         3.48282565576569    8.61939693782585    0.24146143634506
H         2.56516770626059    9.13724417437884    0.04376832783612
C         4.45190138522709    8.26804868631691   -0.63376153587331
H         4.48716588027023    8.43025182778677   -1.69337871710281
C         5.48189767586011    7.62086942565326    0.12488444849898
C         6.65342855605722    7.13478966967965   -0.42293506616831
H         6.78812789314899    7.23985238536299   -1.48936880964727
C         7.67139714418872    6.53530117501275    0.29432663736961
C         8.89373696148443    6.06766894867329   -0.29025332918397
H         9.13365673513660    6.13308104111829   -1.33357035014313
C         9.64147225345305    5.56229568276870    0.71699399385471
H        10.62411234227416    5.13678432081912    0.66517746145958
C         8.87134276339013    5.70988128927595    1.92058934812507
C         9.30794974618219    5.31188522696623    3.18249630285265
C        10.63670987117674    4.67253965030271    3.28820508427666
C        10.87840802978245    3.44161341001324    2.68239478557250
H        10.08117325874498    2.95052254181356    2.14432312869019
C        12.12096915699198    2.84991627639672    2.77969614859973
H        12.32192179009989    1.89450677291035    2.31895834160805
C        13.14719039174367    3.48135665425979    3.47979494113447
C        14.46584568804344    2.81034595680972    3.54932026107044
C        16.65765517425098    2.93213144018415    4.35613063460919
H        17.08560423492665    2.77676626319195    3.36344226251011
H        16.59873206703874    1.96789464914994    4.86568158940409
H        17.26228283282196    3.63082973724347    4.92865319930682
C        12.90998689664456    4.71269377111407    4.08607229010368
H        13.70523248313224    5.20188929034583    4.62610949089034
C        11.66361400256154    5.29867578586014    3.99159071293567
H        11.47677830597545    6.25604410656425    4.45531855473412
C         8.56667234545419    5.48341592556720    4.34579922545712
C         8.99787702500212    5.02733457341154    5.63741107014280
H         9.92071824670752    4.51726052513644    5.83117291725661
C         8.02240853920555    5.34962767181647    6.51434322379358
H         7.99395299841516    5.16201961153816    7.56619534316706
C         6.98399073294472    6.00191445588951    5.76818332265739
C         6.97641256601858    7.54457440114728    9.97149380883740
H         5.96796527850085    7.89201060458636   10.21997622408221
H         7.65761278344726    8.39948581181117    9.93302648340617
C         7.44468152099319    6.52029723146104   10.99124288949912
H         8.43428916808246    6.15437276428602   10.72820032766807
H         6.75462809337732    5.68059756600326   11.00776574344384
H         7.48178382770015    6.97236594914704   11.97897686048324
C         4.80396386757202    3.84880452963093    8.65005019944363
H         5.06244312542080    2.88853224190532    8.19297508495275
H         3.91093264155726    4.25123324285322    8.16377634581246
C         4.54930125837009    3.69145586102696   10.14018813736623
H         3.73708343015394    2.98799707544880   10.30225605183965
H         4.27509093634131    4.65503615063413   10.56172525772020
H         5.44345326355570    3.32344542022692   10.63795752676882

