27
CSD_code = FOKFEQ | q = 0 | S = 0 | Stoichiometry = C9H11ClN4PtS | MND = 4
Pt        5.47998000285284    1.37100759986996    5.53070280692227
Cl        5.95966424882302    2.37698197712541    7.46160235503320
S         4.66866801987531    3.20963274851257    4.39045991460810
N         6.09364990908240   -0.48729119191299    6.11203892760703
N         5.10165037613757    0.41591407394608    3.89631058343189
N         4.58466495733771    1.00304336893304    2.81884380125469
N         3.81869300046005    2.97608836641770    1.92835359129107
H         3.67318242415775    3.96259157532650    2.08067430120795
C         6.59026563480621   -0.87211982678350    7.27934657200202
H         6.69081384649371   -0.09714865557739    8.02882086892091
C         6.95892054580892   -2.18276505032623    7.52943787760699
H         7.35818287408427   -2.45694397625929    8.49171980812067
C         6.80207112753461   -3.12450221721222    6.51879588416691
H         7.07952492105762   -4.15479124559289    6.68239046926380
C         6.28651351233199   -2.72769076679992    5.30156703792443
H         6.15430856164050   -3.43629041853526    4.50072073394598
C         5.93039874341460   -1.38791803693911    5.10728806392630
C         5.38123294077486   -0.86745396306428    3.88230085129519
C         4.34650004470643    2.28911857026765    2.94628099748890
C         3.49022952964235    2.42356751916247    0.64142813161160
H         4.10831488333429    2.87268098835482   -0.13897603890715
H         2.43973928417462    2.60624072231451    0.40871846589376
H         3.67402632881127    1.35353996839548    0.67617366871890
C         5.14559983841979   -1.72779072366014    2.68125520658053
H         4.73466110627608   -1.11272511137280    1.88613628967599
H         4.44345455466680   -2.52738491829876    2.91333881269824
H         6.07868878329446   -2.17479137629135    2.34107001770982

