68
CSD_code = FOKGUI | q = 0 | S = 0 | Stoichiometry = C27H38NPTi | MND = 8
Ti       -0.20398999616408    5.90934145769221    3.02735919146245
P         0.05566540783529    2.76260452271790    3.96414157112688
N         0.10429037401669    4.29707861286253    3.78992345762721
C        -0.87641006108710    6.99816391503579    4.67896286333118
H        -1.19771193048618    6.39819734366074    5.53815210293976
H        -1.72679655759536    7.62844193671183    4.38457056591971
H        -0.08495550069270    7.66804727034248    5.03173435387528
C        -2.16990154291898    5.72074190811879    2.30899867841612
H        -2.89160954872582    5.37946808910882    3.06199962424931
H        -2.25936779503198    5.06060003662317    1.43485075691868
H        -2.50164592617742    6.71806618084652    1.98946189802488
C         1.18407768489230    5.94499175090128    1.02968770975632
H         1.43834612342193    5.12043798609651    0.37356122171471
C         0.13766867755782    6.86373070949634    0.82479602021725
H        -0.56281816233260    6.84707699143287   -0.00176701985562
C         0.26563789486000    7.88962433444916    1.77799494648634
H        -0.33079145518699    8.79312781723545    1.82225523950909
C         1.39248802683670    7.60918230205341    2.57083283407048
H         1.82143926542172    8.27190661930859    3.31222310830635
C         1.95957883405743    6.40357064266968    2.11122745850287
H         2.90892337824063    5.98615557899352    2.42424317811656
C         2.08526917308932    2.28132059451239    2.26017710933385
H         2.51413664401893    1.97706516242456    1.30535066606418
H         2.65755030022836    1.81001356043689    3.05942156907639
H         2.17500724289907    3.36537914175722    2.35997456290853
C         0.45214863843439    0.38112435369263    2.19169997676442
H         0.62738354804925    0.11599761349788    1.14808401188768
H        -0.55024750949677    0.05130736020007    2.45226782085994
H         1.17691765015869   -0.16573797091621    2.78794028606518
C        -0.14947306308153    2.57627828832220    1.20470594398445
H         0.39862002499977    2.46059577668512    0.26896650463697
H        -0.25930753635813    3.64535819002260    1.42330244464285
H        -1.13622817444025    2.14000820363274    1.06898174846755
C         0.60855241506512    1.89207853573273    2.34266006964568
C        -2.63932430494171    2.24451884203668    3.42166085596660
H        -3.66158794713088    2.23326956445892    3.80009235678246
H        -2.52864068893500    1.40759765037231    2.73485748713998
H        -2.47656137008521    3.17786251386553    2.88593092236660
C        -1.99737603545708    3.18569482932083    5.64138399893032
H        -2.99337697946110    3.00836252793632    6.04605509506859
H        -1.95551651718369    4.18527051832357    5.20099088158780
H        -1.27699373001390    3.14033457169561    6.45862418829844
C        -1.72499654352371    0.75418749632722    5.20104279251061
H        -2.75105827310643    0.57349032912764    5.52380323498821
H        -1.08154063004995    0.67329891958723    6.07368645538815
H        -1.46024900892656   -0.02699928886322    4.49344303819235
C        -1.65118975833877    2.14422078829942    4.57840393319452
C         1.79509192525046    4.43330438139959    6.12140367960688
C         2.67146382219781    5.09582586170746    5.26764181999190
H         3.24085831980903    4.52011992968315    4.54997557349366
C         2.86358727431846    6.46107705445566    5.38665850727014
H         3.58089647894474    6.96175015067752    4.75104424002873
C         2.17934293088763    7.17962247638607    6.35408871041647
H         2.34887053124158    8.24188013348311    6.46244773915546
C         1.29013461500920    6.52971728027763    7.19316843591334
H         0.75389698045511    7.08574367209285    7.94884759573728
C         1.10665841443054    5.16342419896356    7.08460321188337
H         0.43828539766093    4.65189948054765    7.76327531100565
C         1.80686036085902    2.95592673569036    6.18133626374499
C         1.18383631130009    2.10115335157401    5.27236257987602
C         1.34650018594895    0.72638518895234    5.43548691940549
H         0.86512462438931    0.05262233769472    4.74881904851118
C         2.10418195264641    0.20063381986772    6.46355517540232
H         2.21616283990396   -0.86975050569688    6.55868634743669
C         2.70477313383829    1.05102559036157    7.37628201503644
H         3.28860714496532    0.65367016631360    8.19334550777367
C         2.55177603245249    2.41497923220063    7.23009041369317
H         3.02125596632424    3.09053538452083    7.93156318914086

