46
CSD_code = FOKGER | q = 0 | S = 0 | Stoichiometry = C14H21ClCoN5O4 | MND = 6
Co        0.32553588917515   -1.77463896393025   11.00344244296936
Cl        3.46788000625083   -1.94902260711220   10.32473707849574
O        -0.63178344778100   -4.41536234989610   10.93356825803582
O         0.48377712615295   -0.03067673361348   13.31014941397894
O         1.07928858147538    0.92100235950858   11.05807581750657
O         0.27783919650228   -3.55587513120321    8.72874484620679
N        -0.37783469498064   -3.39568312930898   11.67961436167600
N         0.14761168412242   -1.24605786312291   12.81016573651125
N         1.00032721896588   -0.14789502715018   10.34122273511252
N         0.56631562556101   -2.32237688282388    9.22000464828723
N        -1.58852278852306   -1.12658779895915   10.59502657898189
C        -1.23400346849499   -4.56023792623695   13.67338662760388
C        -0.64483517877227   -3.38947741036952   12.95350699658096
C        -0.32599078599022   -2.14787067011760   13.60518037547166
C        -0.53428270424754   -1.94027911336271   15.06808114147464
C         1.85836708545823    1.02547903062703    8.35639075299370
C         1.30861077886188   -0.16126530491368    9.07852958653902
C         1.07864343763593   -1.43074449751572    8.43949117695063
C         1.41084708774610   -1.67207983615368    7.00665497661755
C         2.15743425942153   -2.46852692060127   11.39373685001577
C        -2.46801030548616   -1.93422106647517   10.00422577377850
C        -3.76852934862546   -1.55227626853668    9.72424958003081
C        -4.18362960771605   -0.27654392237275   10.06960949975384
C        -3.26934340597839    0.56429992982990   10.68267093845578
C        -1.98795869455117    0.10051270222344   10.92528996373605
H        -1.35692599886912   -5.37527970337746   12.96346714759923
H        -0.57970466887744   -4.88463467538609   14.48076092565857
H        -2.20476061027027   -4.30729039499529   14.09797591021213
H        -0.25228758711376   -0.92591032464747   15.33707085080596
H        -1.57744010643926   -2.10906102250785   15.32954052524972
H         0.07428216130914   -2.64373649162466   15.63385609974304
H         1.95389380942922    1.84702347782074    9.06280637920896
H         2.83854100781099    0.79408138089409    7.94315965297021
H         1.20055086552113    1.32700544001134    7.54211358555416
H         0.94791328933802   -0.91741743483429    6.37386328672399
H         2.49016825866099   -1.61556848201380    6.87236510299980
H         1.06762025866276   -2.66003700224514    6.71184984857540
H         2.16251314837813   -3.55923873458922   11.32839965161104
H         2.48173691565656   -2.17705614427500   12.39536206214561
H        -2.13297314701940   -2.93038378005750    9.74953176733429
H        -4.43869513883160   -2.24766688659548    9.24452858825011
H        -5.19135461062551    0.05312020999038    9.86621104987943
H        -3.53830917258535    1.56785336122373   10.97133854962076
H        -1.25920038289188    0.74961700282991   11.39188024179845
H         0.81240045225126    0.50213635033495   12.47222001889425
H        -0.08332228967766   -4.07635074436839    9.54784259739982

