54
CSD_code = FOKJIZ | q = 0 | S = 0 | Stoichiometry = C26H24BrOPPd | MND = 4
Pd        4.13636134207425   18.91358563651474    1.38584603885237
P         5.44839090191071   17.19474531877539    1.01013498398170
Br        4.95372624556416   20.33433776044458   -0.41458856307741
C         3.05490966210059   17.84859281823768    2.82434854012482
H         2.06213263192248   17.84983462473774    2.34414319817567
H         3.35643047838713   16.81785759347803    3.03309060325426
C         3.10719217814513   18.67313205690268    4.03562489601530
C         3.79030939945585   18.20700393498876    5.16858357535734
H         4.25663631460939   17.23169710244890    5.12651168589996
C         3.87569407856349   18.95723973273783    6.32149967352089
H         4.40934114747976   18.56889844246755    7.17714702272334
C         3.27478204758646   20.20502666538317    6.38642865564701
H         3.33845897829589   20.79805238686215    7.28614393741838
C         2.59780428392391   20.68986243035026    5.28203844152157
H         2.13511816583650   21.66628022586042    5.32347580523324
C         2.49964434663438   19.94362289046876    4.11843308103448
C         1.80880024074561   20.52505887646116    2.91409556217375
H         0.96961961156377   19.88615779526460    2.59295132393674
H         1.41793786427189   21.52309068229320    3.14868209698322
O         2.77367928593824   20.62756465909806    1.87065019468124
H         2.42811327474050   21.11241041033248    1.10541343123650
C         6.58643450359274   17.19985237761624   -0.40887678609891
C         7.60942892248443   18.14538946534218   -0.38183316460492
H         7.68307770361386   18.82329190628866    0.45994706081852
C         8.50185492076916   18.22889931478141   -1.43144945276521
H         9.28727334302994   18.96910458240946   -1.41322531805277
C         8.37841726870771   17.37042426382464   -2.51329004568344
H         9.07248643799144   17.43913394173051   -3.33768115563815
C         7.36165197701676   16.43167665256398   -2.54331060114677
H         7.26267732451357   15.76716315830340   -3.38922336580127
C         6.46099444507332   16.34391867668425   -1.49544244244995
H         5.66245445784691   15.61554397206589   -1.52522020362992
C         4.43629929658900   15.70995311675476    0.73893766251538
C         4.64465141991289   14.45437844696188    1.29036083633304
H         5.47935648859448   14.28279520528981    1.95405180424592
C         3.76273945202831   13.42504850149327    1.00177412093893
H         3.92174595778832   12.44807346060145    1.43428604142560
C         2.68036763009769   13.64323735885494    0.16677164082002
H         1.99967244264792   12.83489794663488   -0.05530190861265
C         2.46036484248723   14.90151924754441   -0.37519473367081
H         1.60887930268275   15.07329420841423   -1.01699919391722
C         3.33004695924515   15.93287514705365   -0.08186722680020
H         3.16698290535388   16.93656711112784   -0.48099711256834
C         6.60679969469968   16.91810520621696    2.37950814598887
C         7.53849346219109   15.88450600524892    2.38551691926971
H         7.58809659604319   15.19924139472946    1.55018505822330
C         8.41052648386355   15.75566544623718    3.45103518668396
H         9.12913845973330   14.94922847627207    3.46292304620543
C         8.37131633829034   16.66396829828913    4.49813707605362
H         9.05468240111174   16.55638190614519    5.32737699991723
C         7.47292573992629   17.71849936415661    4.47434963528041
H         7.45816674592711   18.43888956882697    5.27853114328375
C         6.59442479706744   17.84862778679481    3.41390218631336
H         5.89118879932784   18.68459644063742    3.36946396242585

