93
CSD_code = FOKLIB | q = 0 | S = 0 | Stoichiometry = C30H52O6P2PdS2 | MND = 4
Pd       -0.00042453286455    0.00072755873496    0.00020188262209
S        -0.20396266636695   -2.06988635043915    1.06947921044583
P         2.14246068078483    0.14068825175695    0.64748725522646
O         2.48779507569933    0.54050561592344    2.15364261388725
O         3.04834753905561   -1.18843450353987    0.53742489841784
O         2.95107194742774    1.26887376136497   -0.12211563116822
C        -1.20318850887390   -1.49533062872592    2.37366893053646
C        -1.95503313343425   -2.41312411455322    3.10831761106644
H        -1.91392709054302   -3.45551443849637    2.83004240873857
C        -2.73661497732805   -1.99168589704035    4.16338204779311
H        -3.32024852893441   -2.71270361586575    4.71807160068032
C        -2.77754582277101   -0.65079147358137    4.51529454270807
H        -3.38890391518306   -0.32229140018054    5.34253603972374
C        -2.02256298095616    0.26415270328627    3.80068363557411
H        -2.03740796981644    1.30901363623990    4.07887160243139
C        -1.24077661974600   -0.14485908169617    2.73491854969865
H        -0.62140166977624    0.59505579668515    2.20125243916035
C         2.15546903475157   -0.27946139015244    3.28370481518790
H         1.35027306660071   -0.96918307087172    3.00449993598299
C         1.68904590277645    0.64729793393466    4.39909713746538
H         0.87704495513111    1.27864842000582    4.04947694211408
H         2.51010867313042    1.28452553786739    4.71937633037427
H         1.33868885633924    0.06072520680029    5.24361706682927
C         3.37933409739537   -1.08452940344031    3.69884810900740
H         3.69575567742054   -1.72262312266810    2.87937910858881
H         3.13619702715419   -1.70192010640574    4.55937490912572
H         4.19501350079188   -0.41324378474813    3.95818977741930
C         2.82774464120390   -2.21791291437387   -0.42486222511294
H         1.80995351695888   -2.10830767696877   -0.84059743495519
C         3.85792724546247   -2.08990621891760   -1.53917816441384
H         3.75140952113336   -1.12802236557940   -2.03556283019468
H         3.71657727118479   -2.88236922858571   -2.26902106163152
H         4.86026700839988   -2.16541627878261   -1.12303084243203
C         2.93078987728722   -3.55699938909033    0.29416062002271
H         2.17585690752936   -3.61032112642217    1.07400384326550
H         3.91674034833650   -3.66394661801696    0.74059100821307
H         2.76707802667802   -4.36775735328478   -0.40959736367212
C         4.32366008220418    1.56792874544886    0.16608679558199
H         4.75845397792639    0.72389878991295    0.71509776020566
C         4.38353274202027    2.82774347270344    1.01815912025790
H         3.85035116586104    2.66606642304672    1.95037896796261
H         3.90972936913565    3.64822659226107    0.48502383472408
H         5.41733512818695    3.08657775191440    1.23243164073956
C         5.04165356345447    1.75401734169719   -1.16378841870481
H         4.99853125461772    0.84115432797481   -1.75170292762774
H         6.08198271319644    2.01599227310733   -0.99021558704493
H         4.55878053180087    2.54653705906693   -1.72961633095198
S         0.20433866508986    2.06943153478837   -1.06900678423886
P        -2.14246263079331   -0.14062417665733   -0.64744711724421
O        -2.48762640660322   -0.54049506544796   -2.15363500051973
O        -3.04844664881728    1.18843894321003   -0.53744578453238
O        -2.95106391574715   -1.26887882484398    0.12207174637008
C         1.20309275526480    1.49524702798175   -2.37371737410008
C         1.95491065933182    2.41315081179293   -3.10826646338684
H         1.91377342978594    3.45551796920835   -2.82989712286452
C         2.73653596949001    1.99182850432114   -4.16334393068958
H         3.32012816280511    2.71291873572772   -4.71798266590970
C         2.77754756462620    0.65095293361361   -4.51532820114058
H         3.38893443735673    0.32253292897078   -5.34257534247333
C         2.02260900252425   -0.26407785229415   -3.80078454904446
H         2.03749137949123   -1.30891964559395   -4.07903507486757
C         1.24077631816225    0.14481881320259   -2.73502854916285
H         0.62141766761783   -0.59516310148443   -2.20143295168216
C        -2.15535721894661    0.27942145124966   -3.28374390520744
H        -1.35018796725538    0.96918622794767   -3.00459495979030
C        -1.68891811873219   -0.64739238650147   -4.39908324318501
H        -0.87692411085421   -1.27873057037743   -4.04942574862400
H        -2.50998196288913   -1.28463231455921   -4.71933434540223
H        -1.33854979243614   -0.06086102835155   -5.24362720158201
C        -3.37924392114596    1.08442082731476   -3.69894206016684
H        -3.69571661035324    1.72254360955956   -2.87951636164119
H        -3.13609722203987    1.70177956161010   -4.55948913588713
H        -4.19488429361408    0.41308554658589   -3.95828240035027
C        -2.82789270605481    2.21795710544523    0.42483133244480
H        -1.81011979864957    2.10839419384461    0.84057817896248
C        -3.85804702005202    2.08992481715978    1.53916569774610
H        -3.75149128512369    1.12805502883209    2.03557347670556
H        -3.71669374039278    2.88240879418446    2.26898504501173
H        -4.86039564206586    2.16540419339919    1.12303835713842
C        -2.93090548945823    3.55703782732191   -0.29419965893753
H        -2.17596573592253    3.61034359852599   -1.07403786057511
H        -3.91685160256615    3.66401552422788   -0.74062784735465
H        -2.76716182300776    4.36778094709068    0.40956948056215
C        -4.32364942266208   -1.56796773350609   -0.16608108656532
H        -4.75847857999000   -0.72396624842896   -0.71510724700977
C        -4.38350050142498   -2.82781149022258   -1.01811471514733
H        -3.85031041345174   -2.66614765022725   -1.95033244729532
H        -3.90968405822694   -3.64827333538664   -0.48495586018390
H        -5.41729520191943   -3.08667265742164   -1.23239176365591
C        -5.04158449229158   -1.75404469161715    1.16382778942248
H        -4.99840435172858   -0.84118314354493    1.75174144560939
H        -6.08192973304388   -2.01599387790854    0.99031997655694
H        -4.55869610362980   -2.54657731044259    1.72962806025574

