82
CSD_code = FOKNUQ | q = 0 | S = 0 | Stoichiometry = C30H34CdN10O7 | MND = 7
Cd        2.45617787774876   -0.73473890432437    9.39263816656144
O         2.98727154757586   -2.36639012845221   10.91140240497033
O         1.74898262684432   -2.91774041982132    9.18402835036332
O         2.97355143860317    0.83330496346253   10.98256192039295
C        -2.37936382902430   -3.52075494603754    9.42730078842707
H        -3.09715989536401   -4.30081480605054    9.21547311318358
O         3.45552953842282    2.63229449016266    5.94661168073120
O         2.07795747220695    1.48993194441178    9.08812905550087
O        -1.20705406845350   -1.42419410109590    6.23291693260655
C        -4.02929705986157   -1.46092721071990   14.33298934125086
H        -5.05994946685597   -1.62517731587575   14.05533228834736
O         2.21285153206236   -0.73255625203710    7.17935500613303
N         6.33813586351483    0.23647453365013   10.39096769902850
N         5.40533608575050    3.01601677361012    7.72181564332118
H         5.09156693306730    3.72170488366533    7.06821170557248
N        -1.97808754363992   -2.76475782516628    8.38118556553264
H        -2.29053424847046   -2.97313637820441    7.44180810052111
N        -0.42176166957030   -2.03684456989720   11.95499767880149
N         6.80485265189848    2.46859427690092    9.52161894968457
N         3.78712954055712    1.56239881341638    6.80638552580070
C        -1.69221370128701   -1.92613190556009   14.01778998457898
N         0.34488892066300   -0.70500941617531   10.35083821362904
N         4.72882922242562   -0.37873708398154    8.98613458045157
C        -2.39747383314413   -0.37295342401707   15.71084512958773
H        -2.15194602257857    0.31236480144169   16.50852976603153
C         2.29775963578357   -3.18851406163213   10.26891231345284
N        -0.62409674301502   -1.05716401640885    7.46978165275695
C         2.58877750908784    1.72814342614086   10.19986763238626
C         2.10237170395165   -4.58878437845335   10.85041521637632
H         1.04675195661769   -4.84911560267088   10.82453046809510
H         2.47846674580499   -4.63014727501423   11.86888779202846
H         2.64353938647125   -5.30156065976990   10.23265436995674
C         5.44970180932408   -0.71792796456672   10.02873476548598
H         5.33674307628912   -1.64827109753227   10.55278833665672
N        -1.98592190631928   -3.38199156097279   10.64547297373285
C        -0.52925233319397   -0.78613429881683    5.17450484950773
H        -0.53065183607867    0.29903896224910    5.30790615215855
H        -1.08711239529734   -1.05069504564003    4.27764201444742
H         0.49972371804924   -1.14742785965582    5.09642057982658
C        -0.58132306927660   -1.54633626259803    9.81600928415480
C         5.15432740780683    0.87057815945235    8.64659067415941
C         6.19453345881771    3.42513225316539   14.22912072997159
H         5.93830082155697    4.22761381778421   14.90550950628565
C        -3.71943116773766   -0.58306449511050   15.35882098932729
H        -4.50763482659619   -0.06289037064071   15.88258829104564
C         5.52140161464391    1.62277785131693   12.78912054971827
H         4.73190325851447    1.03724655648838   12.33799223585186
C         6.15715259772079    1.26976469818976    9.52416984656035
C         7.21215558729229    0.24714536973030   11.53553540043194
H         8.24505287636867    0.37169917897505   11.19431328031475
H         7.11546109171893   -0.72135219125956   12.03605061805519
C         7.84812921833439    2.14605229952587   13.05556244241272
H         8.88422796899655    1.95421345938107   12.81591939236998
C         2.18526528356610    2.39254432342124    5.38185728018502
H         2.18973907225221    1.47501250751873    4.78702118920672
H         1.98814554206019    3.25099346359288    4.74186237846161
H         1.42669347624914    2.32196237638747    6.16651794439225
C        -1.07143789451688   -2.38417314992377   10.81028523471574
C         6.85245980337595    1.36708136837747   12.48392228820655
C         4.71183694774691    1.80224329025859    7.64933973234592
C        -3.02038441008387   -2.13046220681218   13.66445436952710
H        -3.25345874830619   -2.81454424136529   12.86143468347962
C        -1.38623887229472   -1.03911833944018   15.03961630342888
H        -0.35484922127725   -0.87184950546320   15.31485800937253
C         5.19871471656574    2.65254622883644   13.65595347539082
H         4.16138559915020    2.84962300375591   13.88172893965558
C        -1.03272424480568   -1.73643251417346    8.46955040198390
C         2.77571085636082    3.18442544200432   10.62411655424180
H         2.51690875256591    3.84699489991201    9.80353826525591
H         3.80774153917354    3.34522228811801   10.92970946897167
H         2.13086262770947    3.39129927011917   11.47444578813857
C         6.38038940296089    3.28265020037993    8.62123829646001
H         6.83554255070425    4.26138351868091    8.56830653088855
C         0.41143330812274   -1.02206649181644   11.62116546605372
H         1.07104215049438   -0.54326511392033   12.32006046083114
C        -0.60230566417842   -2.63883610285488   13.25471243707509
H         0.34780401119031   -2.58742508829361   13.79098122770308
H        -0.87920377580235   -3.68401504352878   13.09265407179926
C         7.52109604500040    3.16878802974183   13.92853943891094
H         8.30305553234924    3.77003722564752   14.36885445372280
H         2.61444910561718    0.14077654113475    7.00877649978991
H         1.25204942929223   -0.59454586534452    7.24740886132904

