83
CSD_code = FOKPUQ | q = 0 | S = 0 | Stoichiometry = C26H52Cl2P2Pt | MND = 4
Pt       -1.82496663579931    6.38710599927045    6.95104044968318
P        -1.22395993086689    4.51492565455528    5.68540145466920
Cl       -1.63048818762760    7.59255004606218    4.97425484256522
C        -1.93707062343841    2.80982071603897    6.14993827731083
C        -3.40394558055766    3.07627982424771    6.49719420703047
C        -1.86538762061061    1.79196935936407    5.01237609190970
C        -1.23983758917837    2.23775690794939    7.38267056713418
C         0.72765235061939    4.59879505570201    5.69284953141220
C         1.15053029985413    4.67751690321496    7.16076378373591
C         1.02426085139608    5.85283945191431    5.01835137915573
C         1.34564101832198    3.39918678616299    4.98045467197212
C        -1.58277018228391    4.65059040317594    3.87830007788753
C        -3.02932060968757    5.02188902791152    3.55734742923255
C        -3.93028486902006    3.99879283534009    2.84058121298678
C        -4.40249771961408    5.10827533092607    1.89077651476740
C        -3.23991227253536    5.98537269774750    2.37375109117936
H        -0.93641355990682    5.46085647592022    3.53189468843446
H        -1.28465352345639    3.73753565036724    3.36077203729848
H        -4.70209947682864    3.51531657625361    3.43821082244598
H        -3.35637120011527    3.23422302551737    2.31764785536689
H        -4.41265933335264    4.86153645375374    0.83124525175370
H        -5.37415818454306    5.51039495770556    2.16944488356578
H        -3.47048021968892    7.01452507942101    2.63517293714565
H        -2.39774448035316    5.97749063842835    1.68426217769138
H        -3.51682707988839    5.41987355986072    4.45320405025406
H        -3.47071140998434    3.77341573005769    7.33042274555929
H        -3.94296673537458    3.48603799861369    5.64671219763389
H        -3.88976844816662    2.14701360879387    6.79265724766625
H        -2.52710851278789    2.06270965325222    4.19500253840327
H        -0.85459217430346    1.67556459470245    4.62925418504378
H        -2.18997824853321    0.82288449534526    5.39109950647263
H        -1.79553331787485    1.37182671179683    7.74159810201622
H        -0.22794901232705    1.91026840730630    7.15555775958982
H        -1.21505117472776    2.97327678944869    8.18233511186649
H         0.96615607911767    3.74717230317731    7.68821544280303
H         2.21339710930618    4.90809425522755    7.22406178951594
H         0.59365632908471    5.47430953206484    7.66136577100710
H         1.24898278756963    5.88680606915001    3.96904248314475
H         1.10444584388177    6.76595653955908    5.57738451915599
H         1.09846712641440    2.46812178338054    5.48373191373067
H         1.01862416676452    3.34489357367257    3.94459934256505
H         2.43026755567484    3.50476238839740    4.98530059906089
P        -2.42586666182788    8.25900205767459    8.21705244969696
Cl       -2.02078307572187    5.18230189840245    8.92805839343944
C        -1.71288166279143    9.96433323919062    7.75346810055470
C        -4.37766519357800    8.17519480715907    8.20872634987964
C        -2.06724291325250    8.12316393935761   10.02438709167533
C        -0.24597578839975    9.69689998804897    7.40718860342122
C        -1.78490030037234   10.98195895434473    8.89121253329248
C        -2.40904869142990   10.53698725483970    6.52042148930656
C        -4.80016933585642    8.09744153414455    6.74074268982200
C        -4.67440041094829    6.92099080456070    8.88263001224169
C        -4.99514525669798    9.37513651598219    8.92108708048174
C        -0.62073666808704    7.75189143660409   10.34593532521273
H        -2.71334315583170    7.31279394151431   10.37086649986617
H        -2.36551748524705    9.03615184329058   10.54193526107118
H        -0.17928514549554    8.99952992459811    6.57413665531864
H         0.29207762428464    9.28680681831361    8.25812121031745
H         0.24079201059320   10.62567977679851    7.11186314325061
H        -1.12341360269119   10.71106339534036    9.70872502002183
H        -2.79578917196280   11.09836164721213    9.27410377821272
H        -1.46019646414476   11.95110048036028    8.51273780911454
H        -1.85252144473195   11.40268404596375    6.16219011425776
H        -3.42091431847029   10.86510788549517    6.74678420764972
H        -2.43373696674823    9.80175094365069    5.72050323050306
H        -4.61690341706730    9.02858276150748    6.21429266863793
H        -5.86275199135874    7.86559662110203    6.67686516461661
H        -4.24222390879059    7.30194725677316    6.23932419857957
H        -4.89463632714283    6.88584505322976    9.93283989196617
H        -4.75988656676429    6.00873534394837    8.32297803391553
H        -4.74716888123676   10.30587750208514    8.41752308216339
H        -4.66807749339639    9.42942755280257    9.95692264370314
H        -6.07988109361496    9.27047493178252    8.91623042530189
C         0.27992843542153    8.77482779845723   11.06336190161088
C        -0.41065765236380    6.78826364510560   11.52955457140888
H        -0.13274918750832    7.35394890931016    9.45034598922115
C         0.75201506992672    7.66504162443176   12.01287509099478
H         1.05184220116378    9.25876119063140   10.46623202299188
H        -0.29428083596406    9.53900960579053   11.58653677262532
H        -0.18030215252432    5.75905961613965   11.26818139681331
H        -1.25293346859996    6.79638537208014   12.21891607730883
H         0.76221447175960    7.91144345810388   13.07249033448357
H         1.72364327289726    7.26290477311729   11.73410514322684

