84
CSD_code = FOKQUS | q = 0 | S = 0 | Stoichiometry = C34H46Cl2SiZr | MND = 12
Zr        0.07785226234571   14.35304719409644   12.66893196886173
Cl       -2.24614290381516   14.16967462559918   12.59985471825345
Cl       -0.04171829455404   16.70159734213031   12.70215176331454
Si        2.79654254862236   12.46394150254926   12.71998327400384
C         1.80958324113581   13.29948789731171   11.32995123232302
C         1.93326337196247   14.66287721092912   10.91893350037942
C         0.77834936657012   15.06990328011848   10.23670918413537
H         0.66003981886556   16.02653429151582    9.74568770596653
C        -0.13118759089406   13.97681733787717   10.19480980550874
C        -1.42440114881465   13.84581674698730    9.63728596209927
C        -2.05402221783606   12.63208437822927    9.76949782937519
H        -3.03978770964460   12.50292285136789    9.35541005666020
C        -1.47943042895231   11.55130935481074   10.46610356913509
C        -0.22890819797253   11.67025933981572   11.03278803437594
H         0.20512811953938   10.82162563703245   11.54361838784895
C         0.49881955510741   12.86988795556300   10.88862638723161
C         3.13076869771329   15.55744149120479   11.06066226658164
H         3.41639772940770   15.94361426498176   10.08139708358889
H         3.98167796985324   15.02534550589860   11.47289642388413
H         2.89086501112484   16.41646460589182   11.69178167375629
C        -2.05385005805642   15.03209845994876    8.94295979057606
H        -1.63966694446022   15.93955298290677    9.40001705163244
C        -1.67835367504601   15.01567373609268    7.45797537034483
H        -2.08801971582274   15.88767646868111    6.95313706269896
H        -2.07409436291480   14.12078045502708    6.98223449091935
H        -0.59731932548438   15.01782703313653    7.33726594644952
C        -3.57026764534421   15.08245023567680    9.12264098750087
H        -3.95109647712668   16.04177916147543    8.77916364511817
H        -3.82307345060261   14.96450640238220   10.17381427127380
H        -4.06347740911419   14.30115814955957    8.54935479752683
C        -2.27587345164077   10.28466033540155   10.66136063539770
H        -1.60922825404469    9.52961695134842   11.09371970408706
C        -2.81966023336688    9.72159326812255    9.34813736058350
H        -2.01221824727714    9.58201890638647    8.63254268335678
H        -3.55767890694614   10.38735388402543    8.90948379358068
H        -3.29574270508458    8.75956945408012    9.52544744784668
C        -3.40543369106127   10.56033061759056   11.65736357912762
H        -3.00190696252561   11.00663954583832   12.56466138405092
H        -3.92336234967172    9.63853518680851   11.91357658422997
H        -4.12334377740457   11.25699896278282   11.23246520484540
C         1.66924853883087   13.14813116889483   14.08674879089393
C         1.60662028799310   14.50781058776172   14.52963550658799
C         0.33698964583117   14.76996426783785   15.09129917175878
H         0.06719125210953   15.68702878077365   15.60271628852000
C        -0.42740977807732   13.56499824209832   15.04602239607737
C        -1.72540956155049   13.24593514471555   15.50993914210933
C        -2.12279074295530   11.93469401470693   15.42004587223712
H        -3.09957315754507   11.65009957759381   15.77959242818943
C        -1.30050166056092   10.91599822003585   14.89091081217682
C        -0.06759620333399   11.23083924373498   14.36855135351455
H         0.58372493731600   10.46034415809372   13.98985633975877
C         0.39184609442432   12.56094217298299   14.41570841386944
C         2.70771440256073   15.53021552845309   14.54459856048058
H         3.13295558009073   15.59949389113951   15.54828137914716
H         2.30864906511785   16.51312994448558   14.28292183276755
H         3.50918864507427   15.27500509271590   13.85919059882775
C        -2.58018169898439   14.33893861245596   16.10931353584795
H        -2.29356097781691   15.28250872592134   15.62620349497641
C        -4.07185729706758   14.13110168315750   15.85675453499418
H        -4.24671706299690   13.96022282753141   14.79754864161486
H        -4.62396825657269   15.01753897147160   16.16105931294138
H        -4.45587330878937   13.28535946019057   16.42187656644887
C        -2.29171978889170   14.44562943522480   17.61029850227336
H        -1.23233714677619   14.61810293427632   17.78664831918057
H        -2.57531306782704   13.52255444239796   18.11171643135513
H        -2.85661534599122   15.26570863660537   18.04775674236328
C        -1.80381028724686    9.49463578144054   15.01139597416666
H        -2.87076579192849    9.49393170486840   14.75947289414340
C        -1.09900376802110    8.49762603037842   14.09632987341570
H        -1.12009914002647    8.83987961183567   13.06546066881667
H        -1.60234674969316    7.53437953333919   14.14670616997225
H        -0.06517932834913    8.35110555309864   14.40100434049296
C        -1.65841439504345    9.04628981905667   16.47098380868088
H        -2.04989754213240    8.03944522021474   16.59974281040709
H        -2.19733521923308    9.71579553499658   17.13648975344536
H        -0.60934448617393    9.05096803864941   16.75958506508215
C         2.89289136935016   10.55809407181101   12.58525873516726
H         3.71566498474979   10.28824000818660   11.93096096649367
H         2.00386347687375   10.08587213044381   12.18779512536825
H         3.09735613747464   10.12234256358850   13.55812855226981
C         4.65420073319948   12.90119879848577   12.87503483468454
H         5.14434822199556   12.77750586722888   11.91473342324247
H         5.11945391516790   12.20529363801170   13.56525393923528
H         4.87459291867172   13.89812731793732   13.23476547756991

