84
CSD_code = FOKRIH | q = 0 | S = 0 | Stoichiometry = C34H46Cl2HfSi | MND = 12
Hf        8.10881999275518    4.98700986984678    3.31070621587659
Cl       10.34956496784372    4.88840421564469    3.89041379385947
Cl        7.80171793908756    2.69152210925443    3.41475343485923
Si        6.18315340243413    7.50904079459278    2.74228529071667
C         6.74949201044351    6.61773510364576    4.31779704530084
C         7.95587251767983    6.83940712363648    5.06479749130795
C         8.18911900781212    5.76308195491359    5.92483605996528
H         8.98397723927348    5.71774182669569    6.65246986933451
C         7.15212982342475    4.80626496572177    5.75256767735646
C         6.87460966171901    3.58195305112450    6.40290941441420
C         5.72662336864407    2.91919432910422    6.04352312125680
H         5.48284260630467    1.98087193028364    6.51571377940542
C         4.82278896040394    3.41324279857123    5.08022815534251
C         5.08082133637153    4.60191148309324    4.43787719794973
H         4.36867789251450    5.01319024361124    3.74173759564561
C         6.24902500426268    5.32658499345498    4.75166450557272
C         8.80761276207475    8.07494017322002    5.04697342724619
H         8.18965250797095    8.96980557815760    5.02190543500716
H         9.47950909212756    8.08447774231698    4.18687332058834
H         9.42297462007287    8.10577125852196    5.94407717124531
C         7.86708581521945    3.05595248621827    7.41246042771247
H         8.23212394995320    3.91034858724507    7.99414507596171
C         3.60992891995525    2.56657649583658    4.76819541646850
H         3.29564640826746    2.08695673215953    5.70260026991417
C         4.29456490320056    7.55912164038194    2.47053597540826
H         3.85389471556723    8.25687792074413    3.17480979190294
H         3.78320063756107    6.61413000830578    2.59715239072403
H         4.07493498524675    7.92395519330269    1.47226732547916
C         7.27430437643180    2.04268020021851    8.38840513185972
H         6.37668717418384    2.43881963587322    8.85813019825816
H         7.99966357202726    1.81717121372578    9.16725772172799
H         7.02769563946023    1.11281622299954    7.88199116603980
C         9.05349429352068    2.43733762619948    6.66303158535092
H         9.51114194708256    3.16119256516678    5.98851972027145
H         8.71757244773688    1.58898375234322    6.07082649294339
H         9.80851399677790    2.09379494328128    7.36684822893435
C         2.42168780568384    3.35894102832500    4.22647909800078
H         2.20226173317738    4.20955261823899    4.86802555566786
H         1.54157662837839    2.72055253472232    4.18910602210382
H         2.61340853366108    3.71775068937132    3.21753492358356
C         4.00920829323678    1.46281303970187    3.78253048680654
H         4.85676614573332    0.89889662857586    4.16331417782254
H         4.29747985682323    1.89339166712507    2.82590946296762
H         3.17793985399508    0.78066113421118    3.61744511767994
C         7.17083212319919    6.36138490132027    1.59668179398267
C         6.80507604026193    5.04019048518667    1.18252380749746
C         7.95010258072509    4.32525739714272    0.79565710642673
H         7.93842359428799    3.34495225695469    0.34273610831361
C         9.08656968008252    5.16999134012875    0.94809570989806
C        10.45596250051286    4.98594216290585    0.64345289492503
C        11.30638305239144    6.03984269619392    0.87380191435428
H        12.35693615210672    5.92391716416466    0.66804047882470
C        10.86311510163063    7.28513779688832    1.36018970043727
C         9.53010282029811    7.48550692552400    1.63658175946647
H         9.18513852640299    8.46436528947270    1.93515971781610
C         8.60919412678688    6.43587915218488    1.45712567868867
C         5.41657698741769    4.48995597815640    1.02975909005013
H         5.33774372048968    3.95180317633162    0.08538974199858
H         4.67739590371003    5.28520249419631    1.03195565043510
H         5.18847039844141    3.78204278186736    1.82938331284991
C        10.91260617966756    3.64039413948088    0.13039201555394
H        10.14171693392338    3.26748716804071   -0.55409362014780
C        11.85676091865814    8.39761942755023    1.59160053385654
H        11.30850633993572    9.27031437109022    1.96653537460829
C         6.65236768810384    9.35276318660208    2.60897913943571
H         6.01889232446029    9.93794365678886    3.26759099526014
H         6.47555706764483    9.69917779787554    1.59596380195886
H         7.67960912346541    9.58163896882522    2.85836353441792
C        11.02326131524862    2.66903179073007    1.31172885792468
H        10.07441382046941    2.58796108913765    1.84300424740318
H        11.77532469028352    3.02177596924314    2.01402916712995
H        11.30971915102029    1.67945685963788    0.96230827674259
C        12.23288787057512    3.69167830770899   -0.63501567987940
H        12.19864459654273    4.45105318058206   -1.41322139181752
H        12.42256452426047    2.72789332668027   -1.10266153911123
H        13.06264873722786    3.90675875332116    0.03367907373548
C        12.55241565351561    8.80227961043420    0.29063975906552
H        11.81725422186819    9.09657659434371   -0.45534533281468
H        13.13559085117854    7.97735999786630   -0.11010784107940
H        13.22229281295995    9.64091497564306    0.46803619330823
C        12.87842900222196    7.98475300209260    2.65383612694163
H        12.37208157701343    7.63577484367357    3.55118772914244
H        13.51479085136704    8.82769895257448    2.91483265553669
H        13.50917309353992    7.17869592177483    2.28887169102993

