60
CSD_code = FOKRAZ | q = 0 | S = 0 | Stoichiometry = C26H30Cl2HfSi | MND = 12
Hf        0.18179095228385    2.97576794983302    3.58345965190207
Cl        0.47256613661685    0.77741446441040    2.94416166727204
Cl        2.18145721084590    2.96784043594811    4.73860406254946
Si       -1.63612232770336    5.59949527389797    3.93178597843794
C        -1.26644679293600    4.14436689073258    5.08697925800831
C        -0.46966534216349    4.06161176457274    6.27210478056107
C        -0.35204494214038    2.74085392687798    6.67725577767238
H         0.18629400683964    2.40486220922218    7.54561229479014
C        -1.07011902318825    1.91250808824303    5.78237072697058
C        -1.29239903370203    0.51940967653768    5.74600542299972
C        -2.10280662027002    0.01820022087195    4.75397942664037
H        -2.27758702171656   -1.04662022202640    4.70363706103274
C        -2.72192534363202    0.83732043044792    3.78916364104317
C        -2.52262631203801    2.20192634223027    3.80292799183293
H        -3.06591301537713    2.82626781609761    3.10644950798139
C        -1.68999917158700    2.77641831012365    4.80067710018061
C         0.12437800961707    5.21896150350116    7.01188219078885
H        -0.55109111641516    6.07014573427449    7.00881160831428
H         1.07335203891658    5.52387308929804    6.56910620849643
H         0.32324618187612    4.93179550546649    8.04144056726127
C        -0.64813018559208   -0.36463214627111    6.76862435296502
H        -0.92061431528830   -1.40430916304407    6.60900381530051
H        -0.95372123968585   -0.06801504127659    7.77129046518208
H         0.43584744942730   -0.27302129271326    6.70791451981595
C        -3.57405052920488    0.20008272606324    2.73266052901757
H        -4.15300367444958    0.94653700769521    2.19490089118831
H        -4.25389448128318   -0.52754760924977    3.17170193130627
H        -2.93734375465257   -0.32256281492234    2.01859040030348
C        -3.48906112478525    5.76801302354285    3.50130251814445
H        -3.98478823376050    6.35583717643568    4.26668631718916
H        -4.00948995840394    4.81924692644857    3.44334423408642
H        -3.62250262958566    6.28734335986774    2.55789080958666
C        -0.55073755891212    4.98478836836591    2.49810328970152
C         0.88092862881261    4.97755680268082    2.54306280702391
C         1.38180959521815    3.95806117801543    1.69917286171346
H         2.42481554512305    3.81018421815185    1.44864057995448
C         0.26666985142037    3.34437671273834    1.04310629160514
C         0.19069558227351    2.35241155547265    0.04090486068128
C        -1.05227744955803    2.03817458117916   -0.45326023283277
H        -1.13919098500456    1.28452458348615   -1.22251269273259
C        -2.22716897366225    2.68466931261150   -0.02192770710462
C        -2.16564577942909    3.64739328140687    0.95853027938916
H        -3.05807297315943    4.18292686706687    1.24870945619718
C        -0.92719342322890    3.97650666543555    1.53930026059477
C         1.74546933410362    5.93828144509345    3.30709349868572
H         1.48761334049697    6.96474599557709    3.04993960187011
H         2.79347397180820    5.77340303034299    3.06474927138072
H         1.62655964767957    5.81253980445315    4.38430827255729
C         1.43991024253812    1.68842304166452   -0.44997151744079
H         1.21325391895476    0.97256926104682   -1.23520882709988
H         1.92490488856906    1.16290759651483    0.37296064753910
H         2.13851007410299    2.42815786705870   -0.83970527732562
C        -3.53059903960687    2.31641465689883   -0.66544663980058
H        -4.35591048581054    2.87083285180688   -0.22505958517200
H        -3.72305154234016    1.25045566889813   -0.55013238762441
H        -3.49986352141769    2.53345568099553   -1.73268705534316
C        -1.11850801807359    7.32630494703898    4.54967128742658
H        -1.80215154877000    7.65889490478535    5.32298093270814
H        -1.18173813441767    8.04070224930310    3.73556175228106
H        -0.11589098456351    7.37164530878841    4.95309026234043

