60
CSD_code = FOKRED | q = 0 | S = 0 | Stoichiometry = C26H30Cl2SiZr | MND = 12
Zr       -2.11187509628411    5.44026573874085   10.61464587461879
Cl        0.07739637173705    5.43083844282731   11.46866288247314
Cl       -1.91260041968301    3.24569612989654    9.85134290711080
Si       -4.09425954006788    8.04198402572414   10.81523136889317
C        -3.81713945314475    6.53776815079331   11.94551734121261
C        -2.72758927721139    6.36330705866345   12.85701933347243
C        -2.51667781637857    4.99401077197162   13.10129607784841
C        -3.48763804999656    4.25448498473287   12.36866636011979
C        -3.74754065793559    2.86619200916201   12.29443745183181
C        -4.78500009662041    2.45235644353914   11.49703451411724
C        -5.58520585945567    3.35764344848363   10.77015302081165
C        -5.34336334769619    4.71110560225923   10.83413250404440
C        -4.28875463716356    5.20420432742190   11.63019952449027
C        -1.96283076119953    7.42968087775701   13.58827174728226
C        -2.87316381965384    1.91093529048453   13.04799722937480
C        -6.70817548959227    2.81223442963406    9.93942048346102
C        -5.89579551047484    8.28664257039179   10.21787466754433
C        -2.88409720645779    7.43653331708487    9.48551465158279
C        -1.45574683748435    7.53402954298022    9.54112436382756
C        -0.87632969955395    6.54946479643184    8.71766890305413
C        -1.92810029997308    5.81495549698616    8.09376898907702
C        -1.91221776971251    4.76586093555989    7.14650608020135
C        -3.12096940103239    4.28830678913146    6.70350228518451
C        -4.35251636345311    4.81864902925503    7.14060535267156
C        -4.38220401896649    5.83882413210728    8.06351040689137
C        -3.17565870486811    6.35113712632763    8.57922164876240
C        -0.65429300075055    8.56804296920020   10.27984340074022
C        -0.60129147991146    4.20930540667036    6.68137659040677
C        -5.61869888198787    4.25916426567985    6.56397357552311
C        -3.66562136147737    9.76288611814086   11.53177064125743
H        -1.81380684406090    4.59131846806305   13.82009803791920
H        -5.00462321846918    1.39754519083413   11.41595578968519
H        -6.00438718898319    5.38985191874313   10.31681239192075
H        -2.29556562319870    8.42466323483730   13.31116367008160
H        -0.89094803014071    7.32688992439858   13.39970025961490
H        -2.11450256252219    7.31267694817770   14.66266703765814
H        -3.20476208836353    0.88646734051674   12.90287325740470
H        -2.88258790597257    2.13838768044911   14.11368738930980
H        -1.84577097624952    2.00033192954458   12.68897287659393
H        -7.23558015687612    3.60858613131081    9.42102657910450
H        -7.41867997957816    2.27519455359031   10.56719931050988
H        -6.32125370519555    2.11118394608610    9.20146824909734
H        -6.37662595999317    9.04879351751506   10.82173909004822
H        -6.50735427625562    7.39594599131040   10.28742275368218
H        -5.91560916070585    8.62878228442174    9.18815143436654
H         0.18168675078790    6.45736777630926    8.50215445916233
H        -3.13981980614284    3.48408122942002    5.98202541348643
H        -5.32468317752699    6.28600474806674    8.34381952813867
H        -0.97622032915085    9.57057705723288    9.99744036116029
H         0.40069370090860    8.46168345145159   10.03032926783319
H        -0.75473545138167    8.45953277669392   11.36089715375546
H        -0.75360390276525    3.41239656452582    5.95867440337432
H        -0.05302776066081    3.80747420387853    7.53553677734351
H         0.00599320171242    4.98994731416540    6.22345716081425
H        -4.23167986798011    9.93880495815937   12.44071508085660
H        -3.96158992195643   10.52386732357563   10.81694948269876
H        -2.61811179496790    9.91930300091368   11.75334917453221
H        -6.49098108931642    4.76574166247071    6.96901642565409
H        -5.69655035404224    3.19633031495020    6.78791441025193
H        -5.62435403450247    4.37125833034976    5.48029259605516

