60
CSD_code = FOKVIN | q = 0 | S = 0 | Stoichiometry = C21H32BBrOS3W | MND = 8
W         5.10228773902674    4.32295789377898    8.62503862108634
Br        4.67340828821235    2.02288220802376    7.65519236886341
C         1.68614290516174    3.82749614289800    8.71749964350759
H         1.42489477279068    3.54096950446176    9.73736384793672
H         1.74677074143779    2.91596905279328    8.12314949323690
H         0.89340517821661    4.46683064724554    8.32462092219344
C         2.98787805686617    4.54002241598752    8.73573733187722
C         3.47508499206649    5.73971936570396    8.83022213651354
C         3.06707124609108    7.16113956613425    8.92694150372549
H         1.97880061894257    7.23880774305723    8.95611204516190
H         3.43878005612437    7.72134941632995    8.06740139001881
H         3.47580152444956    7.62373436096693    9.82568924328658
C         4.78287136562997    2.17381859506903   11.30574632710689
H         5.47611374428566    2.01303502064523   12.13329535267903
H         4.77194916202162    1.29283752418744   10.66423764537177
H         3.77936198364938    2.29813166919537   11.71548525755633
C         5.14418297740998    3.38959010666626   10.53542833011907
C         5.72914704569134    4.53890161239886   10.68708216350769
C         6.46130184940860    5.35479180134582   11.68332536892785
H         6.48792928974116    4.83963918930977   12.64513767290756
H         5.98655626182416    6.32685836590869   11.81902408907958
H         7.48469252218068    5.52972917202517   11.34668178941531
C         5.82174818291308    6.12653015326016    8.92375740962747
O         6.12211378103149    7.18733838474347    9.24504785758115
B         7.67576477207110    4.20585280222248    5.44684561634609
C         8.01062557806143    3.09510307997226    6.61718991948906
H         9.08058182559054    2.88976408857144    6.64225379598802
H         7.46997735788942    2.15682613252354    6.48497178462820
S         7.64791161983260    3.66214611513969    8.30942718247306
C         7.85194443144718    2.09179443748909    9.21498175573722
H         7.16757025276381    1.33863004548053    8.83021677684890
H         7.65714741087351    2.28808890357803   10.26646850959740
H         8.88014540751465    1.76541598683449    9.08077265991539
C         6.07958514876353    4.12044591219976    5.02016873633597
H         5.70680893117448    3.09552146523637    5.03435922569281
H         5.92516768277052    4.52407085255095    4.01935488498520
S         4.95206160339357    5.10003089195129    6.07144340382334
C         3.34055570000900    4.48190301817409    5.47375336733462
H         3.25861473923690    4.73057739465083    4.41883897465279
H         2.56332450216395    4.98905429961155    6.03966542050223
H         3.27675619849646    3.40455386821418    5.60942899725845
C         7.99165898522282    5.70988931477313    6.02476127670206
H         7.33418847352030    5.94595927094740    6.87880420634405
H         7.84541067620211    6.49141535447168    5.27898251791569
S         9.69283054870844    5.90367195189589    6.64394482859544
C         9.62501162581468    7.66017680959499    7.11121443166229
H         9.42437868741549    8.26252196492048    6.22860973184266
H        10.59177591532761    7.92279929205928    7.52748336609859
H         8.84566147057119    7.80873820153509    7.85501189637356
C         8.50550480481413    3.86428812338744    4.09797040821291
C         8.64877208344386    4.81814518123790    3.09137977437378
H         8.21374018865049    5.79933869007153    3.22427036953871
C         9.33214593153251    4.55607698409000    1.91821481782944
H         9.42702290820867    5.32643891146429    1.16417364150786
C         9.89363612611561    3.30947524553505    1.70643650159741
H        10.43083645599920    3.09808532170021    0.79220520780660
C         9.75293578601989    2.33643312807580    2.67896075059848
H        10.17864256132009    1.35370434136973    2.52488803580401
C         9.06806680256215    2.61443884943517    3.84912098793326
H         8.96994252132752    1.82764385690014    4.58340842636426

