76
CSD_code = FOKVUY | q = 0 | S = 0 | Stoichiometry = C34H35N2O3PRu | MND = 9
Ru        2.73879235846350    9.84534728080238    2.78082542312950
P         4.17750837612747    8.14233292241991    2.32979212677114
N         4.21924348337278   11.09676581076810    2.12649467383748
N         0.65105565380419   11.72641002895154    0.24232965150202
O         4.64634753989851   11.62489117111375   -0.10355060646517
O         5.47512717158224   11.16009704635733    3.98051756086786
O         6.19136728776926   12.21273069742055    2.11871449896602
C         2.72199684964096   10.28129626369169    0.66873774691160
H         2.81100158359681    9.51923977943479   -0.11559339626137
C         4.00248191880096   11.12300946802860    0.78372348918852
C         1.58824495206606   11.08245846623631    0.43265710601216
C         5.31858227470078   11.47870506704527    2.81340901202787
C         7.38399765084182   12.58681470485162    2.79748968527988
H         7.75001123380515   11.72816943533524    3.37227736541511
H         7.15447771791852   13.39640545670327    3.50138928806733
C         8.39604731689347   13.03292934191765    1.75902766965985
H         8.59160240480928   12.21885578784873    1.06606254967061
H         9.32152276101312   13.32651058355400    2.24727361582644
H         8.00159730878964   13.87458554587803    1.19633434168967
C         1.78387859015388   11.48290666720792    4.10214536104897
C         0.77307721435680   10.93164887945323    3.30633479822306
H         0.11953888893839   11.57552977847826    2.73072784800309
C         0.55796331924542    9.52962219942093    3.26299810661471
H        -0.26791757152282    9.13940966014552    2.67532044368612
C         1.29129516354507    8.66742544160511    4.10732964294572
C         2.25381129899159    9.24529979190643    4.98406662602920
H         2.74824151421288    8.60925723477846    5.71068109798463
C         2.53090575627992   10.60986965299676    4.94431202044868
H         3.26380463834309   11.02925785610677    5.62276206424575
C         1.98262572775112   12.97615433244214    4.21490933336851
H         2.93653380134023   13.14983890425633    4.72732078117742
C         0.85539858520373   13.55905041193783    5.07578062454290
H        -0.10723651075791   13.41659749908402    4.58891654162919
H         1.01238928472471   14.62496380673001    5.22188592218200
H         0.82504004442909   13.07685674547157    6.05154948851740
C         2.04125069836659   13.67341008898373    2.85568040635233
H         2.83312836909989   13.24745294414771    2.24145336828438
H         2.25022379053843   14.73182708332450    2.99447938888237
H         1.10378481446476   13.57929817510191    2.31341665637383
C         0.93439393809719    7.21277204830972    4.24885551187809
H         0.34444361578448    7.07163031907549    5.15643878657313
H         1.82970254273078    6.59693242059089    4.33015504586377
H         0.34680228514487    6.86604664349503    3.40171143056675
C         5.77564432529237    8.56538055545297    1.54778091626622
C         5.78450497917633    8.76734455124024    0.16791701009804
H         4.88772433534113    8.58199900355466   -0.40721843777339
C         6.93229639908798    9.19474985830423   -0.47010579391900
H         6.92091808858978    9.36315507469032   -1.53592146768605
C         8.08695428436282    9.42185171983060    0.26003484725700
H         8.98311684284783    9.76274255712584   -0.23767211355512
C         8.09091641520882    9.20625094553259    1.62738724850370
H         8.99272149245125    9.37352980378867    2.19921780421030
C         6.94171126774820    8.78459403903067    2.27304185489893
H         6.95702731941513    8.62600991207259    3.34063002604556
C         3.60517297022635    6.81267560179485    1.22188455488466
C         4.47944275880290    5.84280251256028    0.73765432084400
H         5.52604717106809    5.88445841199991    1.00793469376457
C         4.00658020788675    4.84062978577579   -0.08893566362276
H         4.68544834286970    4.08962884722869   -0.46561433708038
C         2.66499903668652    4.79954055258120   -0.43758512314716
H         2.30140421141447    4.01618932982274   -1.08586272310586
C         1.79346484992913    5.76550400371413    0.03775411370229
H         0.75063720993048    5.73797786349897   -0.24224701341314
C         2.26338199362286    6.76998621895568    0.86533557402973
H         1.60341210775778    7.54722919747377    1.23461219913260
C         4.68124295350455    7.24533936590696    3.83522341481610
C         5.19354567855320    8.01336496578421    4.88209543189637
H         5.27133887998333    9.08732279375611    4.76262387791949
C         5.58036676808221    7.40717553412445    6.06318505575907
H         5.98583460574408    8.00544608217272    6.86612260207269
C         5.43996187049157    6.03680870827617    6.22046066379856
H         5.73773300825860    5.56425198873242    7.14486937957160
C         4.90775807899194    5.27556084439082    5.19377696616751
H         4.78552366047297    4.20935215437019    5.31815734629913
C         4.52852403958638    5.87354218191716    4.00338978903116
H         4.11245820324790    5.27109159115193    3.20842988480650

