47
CSD_code = FOKXEK | q = 0 | S = 0 | Stoichiometry = C18H23Br2CdN3 | MND = 5
Cd        4.67900305439482    3.21219896696357    3.98564340168778
Br        6.19920228263488    1.75432946932420    2.63012432850018
Br        2.67350276990515    4.21462965390206    2.84748421843791
N         5.24136427336943    2.08065836468249    6.10621506136599
N         6.08123962189879    5.11057097587580    4.27962539076306
N         4.00893176364700    4.61577712454233    6.13401509159067
C         5.52824367964346    0.78528227898948    6.11079757140785
H         5.60080210210668    0.30873394141175    5.14088133674175
C         5.74396728532231    0.06738640582831    7.27485685174088
H         5.97471409334887   -0.98443688305236    7.23091040701006
C         5.65776987584506    0.73644754629283    8.48555841812120
H         5.81760361711540    0.21628403546431    9.41815597623615
C         5.36496797871476    2.08911435462409    8.47872450265774
H         5.29548608810046    2.64416522122825    9.40226430031450
C         5.15963803408523    2.73224928378817    7.26214464941864
C         4.90655718080701    4.21751673933535    7.21120334067488
H         4.55867374119213    4.56317053526935    8.19502240192717
H         5.87994904629165    4.68922448333166    7.02703148712170
C         4.28947831801448    5.97592557751915    5.68744914243597
H         4.23539067795313    6.70369818339250    6.51259321316816
H         3.52493217486854    6.24506959252698    4.94864621060254
C         5.62655847156416    6.12694319329730    5.00821137973583
C         6.33280573372536    7.32282542349203    5.10702363084267
H         5.94034019033226    8.13288929599890    5.70286465597528
C         7.53054379335393    7.45873457630330    4.42781417717213
H         8.09095673421486    8.37982575959029    4.48665617585300
C         7.99544797465301    6.39156145578037    3.67458942921082
H         8.92367845879231    6.45189363213942    3.13012742131846
C         7.23448318825155    5.23602381058444    3.63276195303102
H         7.55673898451015    4.37294034050178    3.06142146068901
C         2.57607561273362    4.43513892187845    6.42731261407824
H         2.05069996104163    4.80643626798755    5.54079651123463
C         2.19575776086382    2.96224235523332    6.58092442567514
H         2.63095937948173    2.54776665830155    7.49417306560394
H         2.57587460876663    2.38807743786506    5.72720993039004
C         0.67551753190146    2.82724113341448    6.63620784071545
H         0.25158633717200    3.19193448515996    5.69900035930991
H         0.40538115297182    1.77471966574126    6.74001361365033
C         0.10589463552799    3.62879849155029    7.80174156622868
H        -0.98243466877906    3.55202649937129    7.80832694725672
H         0.47571113008595    3.21547202317214    8.74374882551373
C         0.52220246529381    5.09144152580182    7.69063887253442
H         0.13638631692112    5.65550403190529    8.54248475609620
H         0.09606791336612    5.52117485351591    6.78213884269890
C         2.04369076502255    5.21235107853979    7.64026254496483
H         2.45645035937163    4.80739137247813    8.56751595798987
H         2.31970754959869    6.26634985915856    7.57388574031037

