53
CSD_code = FOKXEJ | q = 0 | S = 0 | Stoichiometry = C20H27ClNOPPdS | MND = 4
Pd        5.49414595169402    3.47673843811051    4.87463095748719
Cl        6.66229645872941    2.03470555960525    3.51927657052683
S         4.71042058293183    4.88457323963026    6.55453585058883
P         6.21333271060310    5.08313805121163    3.50027908647801
O         2.34537524325380   -0.15243027054103    0.95378486007684
N         5.07922515360037    2.03400080902176    6.23025494417413
C         5.41047199307033    3.82636791071404    7.74925608068964
C         5.77728205126349    4.30779804278650    9.00437874451520
H         5.65112830823710    5.35982086807599    9.21168013677102
C         6.30950454285083    3.45543641801870    9.94872562225002
H         6.60939823039168    3.84342869381169   10.91088962749682
C         6.47641081014281    2.10480903327171    9.66576335816162
H         6.91572564793436    1.44803978169998   10.40120498144377
C         6.08196469005640    1.59860593769834    8.44323670807301
H         6.22828226644471    0.55197587356986    8.21757581165428
C         5.54791225332190    2.44599346180251    7.47383055898007
C         4.61289940344334    0.86715894265582    5.96925035410170
H         4.65264768074219    0.06277738138291    6.70604399828798
C         4.00393591379282    0.57875059205370    4.68935829394540
C         4.01828827059228   -0.71737583884350    4.17593930874195
H         4.48528101615835   -1.50732238093117    4.74612170499361
C         3.48916508454226   -1.00206310447442    2.93339748121983
H         3.54462110813620   -2.01217942424198    2.55968335119869
C         2.89951831561329    0.01046334122702    2.18017007609678
C         2.83171178040415    1.30413494795183    2.70963345721585
H         2.33282316011770    2.06302299273058    2.12672183012849
C         3.38229611309350    1.59256080137225    3.93691878239765
H         3.25952157348998    2.60372596701728    4.35744203062455
C         2.39032647353179   -1.42481223894805    0.35287295857293
H         1.91659104557066   -1.30754001245127   -0.62045729950998
H         1.83489013484339   -2.16505890537267    0.93773227127019
H         3.42068219536312   -1.76653009675898    0.21494740559005
C         6.05565145288715    4.78934827815426    1.69784061883010
H         6.45218960104337    5.63613668363134    1.13322228595437
H         6.65198748776421    3.90100827714861    1.47699298344386
C         4.58881436929975    4.51711580167281    1.38310585248311
H         4.46142392717108    4.20523976962500    0.34875875594131
H         3.97786445488304    5.40162514718803    1.55826270591151
H         4.23629365900952    3.71304019880221    2.03594103083786
C         8.01967806210051    5.24748672347086    3.82333539929348
H         8.53217774084658    4.49633641492750    3.21645971704596
H         8.37532955572851    6.24166678527421    3.53878037478657
C         8.26703756483785    4.97779854376204    5.30906737488553
H         9.32289844366245    5.07987025515376    5.55375939610073
H         7.95492985666958    3.94783866606388    5.55560631351286
H         7.69743753346808    5.67461053909423    5.92874320210656
C         5.54059491593072    6.77806389698915    3.79138126356661
H         4.45136346412160    6.68542465708988    3.83583904853123
H         5.87018978506811    7.05771791620583    4.79661424197531
C         5.94671457715455    7.83953097944819    2.77843342714553
H         5.61970615476982    8.81862852141092    3.12314149112347
H         5.48780323073576    7.65533634050877    1.81025840595541
H         7.02643799884522    7.87136079150370    2.64817620640191

