26
CSD_code = FOKYUA | q = 0 | S = 0 | Stoichiometry = C11H12O2W | MND = 10
W         0.53972110110021    3.59155962860052    4.94681233774684
O         1.05162160043843    5.76634017396434    7.10287358133503
O         0.26699080886063    6.35269470855814    3.54984994830705
C         0.85061409805580    4.95137693786249    6.31364132855476
C         0.35165446412885    5.32268248677943    4.05934111524417
C         2.26152654512127    3.91835861637580    3.39125633420790
H         2.10638357602405    3.55993486552759    2.37724996498961
H         2.74922793878729    4.88877514978977    3.43714070278441
C         2.59934182753628    2.96240551687410    4.37934634491003
H         2.69969362112603    1.90451439737861    4.13694958938735
C         2.75162711969609    3.44107977853981    5.70215796204674
H         3.25774415191966    4.39237197428872    5.84326984026680
H         2.97715492920935    2.71368644364071    6.47728969093717
C        -0.89097277354692    2.22139531736901    6.18903671123695
H        -1.05227814771544    2.23255571060602    7.25910917557770
C        -1.64788749937003    2.96274834704726    5.22882190112753
H        -2.52463968240110    3.56180861755166    5.44684331682236
C        -1.25250268095233    2.50778167929507    3.93501662861080
H        -1.73216920171284    2.76965432427978    3.00161010996937
C        -0.23954925179668    1.54455169861798    4.10610525995969
H         0.19125291482515    0.93829760786502    3.31913695425476
C        -0.01923016074198    1.35560653059287    5.49775071856512
C         0.82861801769588    0.28743585722748    6.12006761616584
H         1.67850746753934    0.02868939347081    5.48939345500078
H         0.23200261720617   -0.61668960993201    6.26032584124840
H         1.19764659896697    0.59888384782894    7.09640357074244

