44
CSD_code = FOLCEQ | q = 0 | S = 0 | Stoichiometry = C15H22N2O4W | MND = 6
W         4.19782688238737    6.60097308624874    1.50314757452609
C         2.99415130132926    5.15699105896623    0.95444164080216
O         2.29638203235478    4.30673479082443    0.61577723304057
C         4.69057669868919    5.55152619237360    3.11551001932893
O         4.97727148982911    4.85356680387572    3.97906413570696
C         5.50413959574588    5.57703882117684    0.46322118477126
O         6.25767623011654    4.97135592105757   -0.16135008238228
C         3.70973836047064    7.55035341914850   -0.17145705339847
O         3.43627056748904    7.98898826951841   -1.19500819388270
C         4.15769684385821    8.86677145019527    3.22479626547618
H         4.40219482557074    8.62905872080815    4.26796322458627
H         3.96569335643440    9.95295943696762    3.17241895743726
N         2.96941608006495    8.10069470893089    2.82961236926451
N         5.29256012797469    8.48920499824356    2.37361441334938
C         5.61414922073584    9.53270667850313    1.39488538031249
H         5.96416570398983   10.43970832894358    1.91780165157988
H         4.71386111199312    9.79121172612624    0.83139769264775
C         6.69591979887240    9.05620280847985    0.43176415561726
H         6.33587032217844    8.16775840940136   -0.09356768902652
H         6.89016151643242    9.83755793767952   -0.30472616806575
C         7.96594200280300    8.70960238092754    1.19906295092801
H         8.38336343850935    9.61283741804398    1.65304075328658
H         8.71363211660548    8.29682713956825    0.52191711932273
C         7.62289297248280    7.69648800060320    2.28450182942566
H         7.29283266684659    6.76268100294762    1.82300546983533
H         8.49529135432636    7.48513412594886    2.90458498152516
C         6.49946313567558    8.22926300115114    3.16600677926496
H         6.26829273610367    7.49136742440932    3.93914833680134
H         6.83089096832509    9.15841362452816    3.66031548021071
C         2.28650975116127    7.52363291614876    3.99266349563799
H         1.88688285010516    8.33006151602754    4.63102890939350
H         3.00504036705372    6.94427990279988    4.57894418102447
C         1.14589543932834    6.61235065501764    3.55507512711058
H         0.67712040678507    6.17566837421424    4.43817472759559
H         1.55784375667782    5.80330883362813    2.94703267033858
C         0.12793836480913    7.39847212975801    2.73775366582891
H        -0.64646687122770    6.73144834789210    2.35916520769355
H        -0.35335522172082    8.15091525582317    3.36892888365164
C         0.84801368021478    8.07876093676394    1.57993680586592
H         1.24826112701284    7.31797472405328    0.90471068423556
H         0.16161344967582    8.71322837530739    1.01696001225231
C         2.00012325349517    8.92849380288760    2.10473417855993
H         2.49945501016041    9.42149017294550    1.26656803231617
H         1.60200117827219    9.71003637113566    2.77503300620446

