133
CSD_code = FOLCUG | q = 0 | S = 0 | Stoichiometry = C57H55F12IrN2O6 | MND = 6
Ir       14.80441691461101    3.72948520494930   12.18621707950079
F         8.01230037299086    3.98689527363350   13.36986204173974
F         8.79455610409251    3.21164387999108   15.21140591887861
F         8.51761647669252    5.32898527664842   14.97346723349190
F        14.59491975747131    6.26599122952735   14.35815109829321
F        13.03595558750077    6.58058853366632   15.78676064323108
F        14.21287123937678    4.79607326065486   15.88053619890324
F        19.74724025706915    8.02452835868691   10.45696502159127
F        18.22761195731407    9.43329094775974    9.88632778820835
F        18.90292175375974    9.34057561025256   11.92646030071152
F        13.08166777358730    6.12944354345649   10.61382475828099
F        13.90498202926572    7.69937923773934    9.42088231958433
F        14.25086403589634    5.66103877726575    8.87035904546093
O        14.17445325430368    1.74642031396270   12.66537278370695
O        16.54553211553412    2.79962309240674   11.36170751045337
O        22.08116494017823    0.71500430934055    9.52709074240093
O        21.13534814265105    3.11785818581484    9.68301824006015
O        10.93255642860426   -3.52323252271083   12.75470183866003
O        10.11479808132208   -1.07201337346157   12.73250236261315
N        13.68113467530359    3.35481749958747   10.58095208274450
N        16.01467665283683    3.86947706831461   13.75811351263044
C        13.01347497087508    4.33761080041848   12.92276326616336
C        15.66593618240750    5.51666165893595   11.74707638507545
C        11.99516679481849    2.26829765166646    8.67915304048381
C        11.49283452350986    2.73168996860203    9.88039681108495
C        12.35861973613274    3.27033726521770   10.82945614213663
C        11.96231634822847    3.80165736752194   12.13162470664133
C        10.64475405633324    3.78532933419134   12.56738795761812
C        10.32096992755666    4.32860901405192   13.79938800776446
C        11.30080856096667    4.93670648447492   14.56730542703309
C        12.61743071266574    4.94636280879964   14.11939161559988
C        14.16133860183240    2.91621787914325    9.42237317321994
C         8.92075562473104    4.22633962986635   14.32925521242271
C        13.60689224814529    5.64138232692716   15.01596241745048
C        16.03870477836155    2.98781840483933   14.75094392188264
C        17.07685256530329    2.91957893506106   15.66072653174278
C        18.13569665378045    3.80509616940099   15.52589327322593
C        18.11126758365349    4.72281786416230   14.49227236570490
C        17.03341471457150    4.73996836648163   13.61068653828738
C        16.86259216092274    5.67235897614825   12.49826631157605
C        17.79052932659994    6.66103941518193   12.20685659500159
C        17.54610983542085    7.55364617075954   11.17376785594255
C        16.36076975038805    7.48479220061930   10.46381134610062
C        15.44152556193436    6.48263168189058   10.76000778723451
C        13.35862435800093    2.36263176138715    8.44341018802905
C        18.58595824035054    8.58826147032620   10.85761279968104
C        14.18135755927290    6.49132543515661    9.93663279393239
C        14.63281306281934    0.67894667881655   12.15929097637256
C        15.86452185715890    0.53045248166861   11.51245910739589
C        16.77952201675373    1.56027125201513   11.24459441115090
C        18.14606362440145    1.22890158357834   10.76775783464169
C        18.67175361744123   -0.05231790104522   10.70146992626420
C        19.97902869155750   -0.25481182570846   10.28640161642132
C        20.79489883926500    0.81028071431174    9.93885428400865
C        20.27406414133128    2.12588469050433   10.01513661646451
C        18.96921031048429    2.30831413931066   10.41849039367579
C        22.68201035778879   -0.56005030114009    9.44386122016598
C        24.11505918247438   -0.36650107457646    8.96043412601189
C        24.86652253719883   -1.69146540520722    8.87032538315932
C        26.29884800719620   -1.49199193944609    8.39090063139032
C        20.68431211322725    4.45691354783520    9.73896987325976
C        21.84706760784930    5.36097628160093    9.34558430420768
C        22.27507483846440    5.13946716457735    7.89692963939649
C        23.45625066442776    6.02413853667138    7.52077447148051
C        13.74126802645204   -0.50049413357062   12.29841902778179
C        14.17086877238434   -1.81679679412000   12.31793936064484
C        13.25617200281160   -2.84908882967591   12.46655140179204
C        11.90125899414955   -2.59074330737368   12.60098482120545
C        11.45289624175670   -1.24696288339174   12.59200412155855
C        12.37467185000526   -0.23322074639861   12.44320976941482
C        11.28012930237691   -4.89143629498586   12.72291500689843
C         9.99461929969979   -5.69929656524485   12.87012340379107
C         9.04574018834950   -5.47115432350463   11.69580498128452
C         7.74695548250029   -6.24843082680931   11.86362005295404
C         9.60900874544439    0.24691644252001   12.76613013456204
C         8.11005031288518    0.17525285193100   13.03607571846326
C         7.81490434626076   -0.34204973478600   14.44184190839701
C         6.31744684491341   -0.43971971624266   14.70098150543751
H        11.33525693539938    1.84441670621424    7.93792931693508
H        10.43498254512396    2.67700466080913   10.07798928917492
H         9.86222486640084    3.34799310517066   11.96773948945485
H        11.03870204442157    5.39802199091643   15.50770548003509
H        15.22669660348885    3.01854550619919    9.27144550968537
H        15.19306643541751    2.31766521203318   14.81940121410714
H        17.05229753814071    2.19105529247720   16.45435574905365
H        18.96539845954344    3.78119852743840   16.21566425415095
H        18.92444067204866    5.41902061449908   14.37122399795696
H        18.70858524972943    6.75271775116255   12.76646328593314
H        16.15421685590850    8.20384681018403    9.68560475578981
H        13.79347113790353    2.01976563914535    7.51914880709850
H        16.12438200489871   -0.46150599493992   11.19044478156233
H        18.08653820290703   -0.91373935000684   10.97883340940732
H        20.35783994951868   -1.26371690855219   10.24373190841224
H        18.54514367927315    3.29770929885560   10.48576660481726
H        22.67939808453807   -1.04651966875313   10.43003557442021
H        22.12878090407647   -1.19768278231516    8.73949429817578
H        24.09074184620948    0.11688859247262    7.98268965404232
H        24.62553728856043    0.30692703546171    9.65042419634918
H        24.87557632591376   -2.16977182327481    9.85248538272697
H        24.34238251183430   -2.35870710122198    8.18225891519456
H        26.31014503442535   -1.02741945834305    7.40776505636213
H        26.81644034435037   -2.44605633265077    8.32647743052786
H        26.84469162249659   -0.85034541102086    9.07855644334434
H        19.84183003817561    4.60258538809984    9.04864709824565
H        20.34497224493242    4.70021063018568   10.75597886947368
H        21.54182780089471    6.39753693810610    9.49361157139344
H        22.68876235181257    5.14930701760975   10.00665005822712
H        22.54280201366169    4.08966656591940    7.76851323792808
H        21.43288644941326    5.35668523039202    7.23600810655562
H        23.20056112213015    7.07378709914829    7.64825800064138
H        23.74100267600629    5.86286201337851    6.48371379431982
H        24.31461123693190    5.80223455892343    8.15077054935364
H        15.21940080205803   -2.05976730256359   12.24929115004974
H        13.61826679254477   -3.86482425963187   12.48673932941672
H        12.06627813426789    0.80024097944505   12.43901135983121
H        11.77319277504488   -5.13474207699360   11.77077356830587
H        11.96985013734792   -5.12697985559211   13.54598618819996
H        10.25362050526379   -6.75728776515695   12.94496015280878
H         9.50197094359789   -5.39871026128358   13.79599921960023
H         8.83158443323614   -4.40396317512594   11.62616361639126
H         9.53741956214365   -5.77777055756091   10.76919310331712
H         7.94511216485076   -7.31651859005166   11.92751792767783
H         7.08509506974097   -6.07251156622624   11.01918904063362
H         7.23330662510281   -5.94109604805601   12.77159431075120
H        10.10381299124814    0.82610028127379   13.55821396100239
H         9.80115960753598    0.73824313140780   11.80041054708356
H         7.68496118344167    1.17301222489894   12.91215789854383
H         7.65484448555162   -0.48839514640468   12.29902129341236
H         8.27616474455421   -1.32411592900314   14.55660476069347
H         8.26577938004226    0.33345936683858   15.17206499666212
H         5.85003178182471    0.53702933366042   14.59719932824106
H         6.12800857759688   -0.80482691237482   15.70742427562242
H         5.84914441961754   -1.12138973627017   13.99416085909661

