51
CSD_code = FOLJOH | q = 0 | S = 0 | Stoichiometry = C18H28Cl3PRu | MND = 9
C        -1.99213281292895    6.11077467084072    0.84547222137040
H        -2.73017633738320    6.19686394598185    0.05580619633220
C        -2.01559928809923    5.01509016483749    1.71695346948459
H        -2.78269313022556    4.25501728313835    1.62156238989145
C        -1.07207693872089    4.93653901013239    2.77453992392277
H        -1.12949341660144    4.11822916796407    3.48343772374046
C        -0.12557325086994    5.95485264865067    2.94805430191668
H         0.56345580845427    5.92439427279253    3.78410605789944
C        -0.14305709222257    7.09071075793908    2.09638084192431
H         0.54879004285774    7.90542097091053    2.27677730882860
C        -1.06864736672876    7.17006085801524    1.06039707489038
H        -1.10507669746283    8.04693232535363    0.42387195949999
C         2.00600570794673    2.29008874613665    1.41076529106898
H         2.86261406879046    2.82156824187448    0.98164641736746
C         1.87489575366454    2.70443763448799    2.87656679809048
H         1.76712952522781    3.79164832718691    2.92531859169982
H         0.98626018510263    2.23797848961313    3.31227562191278
C         3.10811935901519    2.27657465764797    3.66542686428060
H         3.98249347212986    2.79455818400642    3.26778660660762
H         2.99336086919106    2.56362948009318    4.71256295271643
C         3.31034260479228    0.76923919885246    3.55529717753257
H         4.20393013907989    0.47119242804142    4.10651490658879
H         2.45508453943312    0.25303586725443    3.99779580098390
C         3.44519826936697    0.36448659006273    2.09177750059379
H         3.57976189948322   -0.71618712930247    2.01293901490336
H         4.32754879405391    0.84564242095357    1.66461047143242
C         2.21012065422767    0.78155675524966    1.29380986373614
H         1.33332629420320    0.25792553201269    1.68324272115038
H         2.35107153123888    0.49030128925749    0.25195411937979
C         0.64998932150309    2.17468559745880   -1.19629559387756
H         0.75228459070651    1.09002279962315   -1.05235629457923
C        -0.63066380014083    2.44949597366340   -1.98542912477321
H        -1.48778906279267    1.99906812281330   -1.47695769053526
H        -0.78566596081129    3.52928841289496   -2.04074356304994
C        -0.51102741655803    1.88495559572679   -3.39769754649339
H        -0.40033401277215    0.79784721482295   -3.35203717581332
H        -1.42241763063014    2.10636480118776   -3.95548052324467
C         0.69592278430850    2.49274604531937   -4.10367855028680
H         0.57031363822998    3.57493827566262   -4.15822144560243
H         0.77050996174620    2.10301874243205   -5.12077716291706
C         1.96992877153056    2.17698848801895   -3.32833108071097
H         2.83324090037077    2.61256571605111   -3.83339245920591
H         2.11398665994212    1.09321454492848   -3.28902834929726
C         1.87999459016219    2.73327199986154   -1.91037111997765
H         1.79986864710313    3.82218976573902   -1.94716784883824
H         2.78596118362396    2.48007830205569   -1.35471622522866
Cl        0.18974201952689    5.70927313915960   -1.47405717058763
Cl        2.41503677805602    5.43345213556304    0.78440976869518
Cl       -0.93156968043909    1.86944922806778    1.27438228863206
P         0.53095748966177    2.94223608034688    0.48394367151350
Ru        0.08064704065613    5.16258622861722    0.80005300643290

