39
CSD_code = FOLKAS | q = 0 | S = 0 | Stoichiometry = C18H15AuNO3P | MND = 2
N         0.83700166897903   -0.63377895202932    4.51742763335474
O         1.46485583941958   -1.13968909550448    3.53851335215142
O         0.89976883951586    0.59184609047170    4.63965116696851
O         0.22727966578715   -1.33661631182900    5.26883591617067
Au        2.32912652150383    0.61733887108593    2.59542917384991
P         3.26894914051397    2.34358512344920    1.54583622764470
C         2.48485967160702    2.76436274507073   -0.03100450914498
C         2.51777503356351    1.78754611831764   -1.02562490972602
C         1.89164547741722    2.01350898966861   -2.23539150863626
C         1.21649523089381    3.20602388185458   -2.45195295297591
C         1.16611199977979    4.16850776716967   -1.45777547666692
C         1.79538447775267    3.95197648523288   -0.24349688521123
C         5.02792977390657    2.15434674496648    1.14555597912029
C         5.82119936568379    1.54718630686260    2.11539118175162
C         7.17815754577478    1.39617018581061    1.90392263263670
C         7.74586992677920    1.84256125568380    0.72043999531148
C         6.95724053743136    2.44163557858920   -0.24811040608711
C         5.59851724941296    2.60272209369687   -0.04049686110805
C         3.22842785721746    3.86876174522554    2.52192027346650
C         2.40352534073510    3.92470619277178    3.64064180608548
C         2.34998318647523    5.08580718099295    4.39246856952367
C         3.11851344598168    6.18125743243902    4.03467071602208
C         3.94639319150865    6.12180720020284    2.92320691017414
C         4.00550080921117    4.96859767097132    2.16432819577473
H         3.03912260998606    0.85757259657918   -0.83525981767236
H         1.92226591011659    1.26004600206585   -3.00804821223845
H         0.72282119958359    3.38069414623802   -3.39606359505935
H         0.63122089052112    5.09158192174665   -1.62525352278976
H         1.75103459967057    4.69950218384273    0.53606353128093
H         5.35836280301070    1.19397084228929    3.02852288354507
H         7.79278264290685    0.92604117042888    2.65666275611598
H         8.80496407538495    1.71928553735439    0.55117274589244
H         7.40153451443588    2.78555872235785   -1.17046319472531
H         4.98237502284487    3.06738941849701   -0.79812351845877
H         1.81513135007781    3.06033240659787    3.91998860272806
H         1.71002539676249    5.13104935880313    5.26040342041467
H         3.07719598642201    7.08469934566136    4.62459557917622
H         4.54777249370306    6.97626806753287    2.64983909429356
H         4.65137870770358    4.91253697882360    1.29817702704741

