36
CSD_code = FOLKEW | q = 0 | S = 0 | Stoichiometry = C18H15AuBrP | MND = 2
Br       -0.17496532943517   -4.14835434749066    3.88673568954410
Au       -0.89721020385810   -3.57372431020378    1.70553650097591
P        -1.58566242346191   -3.03100980117295   -0.37001421102688
C        -2.58316959472972   -1.52011093790685   -0.44657117519102
C        -2.09882196026464   -0.42420892713414    0.26605653749366
C        -2.80730490423984    0.76134211959060    0.27801621679357
C        -4.00964175436675    0.85272490045337   -0.40709139091618
C        -4.50015963098673   -0.24007161735579   -1.10265295892180
C        -3.79245127023052   -1.42949101853418   -1.12560075247731
C        -0.23469411053444   -2.73906316554709   -1.54328467020210
C         0.69795898331636   -3.76789192478267   -1.66524227479179
C         1.78096828972478   -3.62352162674424   -2.50944487071606
C         1.94586441328772   -2.44647637508901   -3.22424148451108
C         1.02666810232825   -1.41863845587803   -3.09516594722862
C        -0.06523721264101   -1.55805475849923   -2.25574431818901
C        -2.59921185544559   -4.28419259184404   -1.19939354764310
C        -3.41234338497619   -5.08153992859630   -0.39914122142516
C        -4.21554738264284   -6.04799878621215   -0.97538518837255
C        -4.20229550167092   -6.22609865856796   -2.34960995250763
C        -3.38912977424010   -5.43681044723633   -3.14796833644291
C        -2.58668630635431   -4.46470486062969   -2.57935468791887
H        -1.16434603572098   -0.51497149629603    0.80688587916879
H        -2.42851206728942    1.61062586146931    0.82661318479323
H        -4.56776069877847    1.77667926973724   -0.39310434322389
H        -5.44038690075326   -0.16811528494406   -1.62913562188668
H        -4.17736760901978   -2.28348905287030   -1.66556551617020
H         0.56194677958750   -4.67742167479575   -1.09252904459635
H         2.50052476319379   -4.42271347075998   -2.60522234615826
H         2.79580220893669   -2.32924444010751   -3.87949184814332
H         1.15992316069687   -0.50126043019946   -3.64902564747221
H        -0.78200305389323   -0.75477066975658   -2.15506119508571
H        -3.40455360791477   -4.93901568993473    0.67460625692312
H        -4.84570426356572   -6.66572506298836   -0.35341299834652
H        -4.82417677320722   -6.98511516832317   -2.79987511968700
H        -3.37942703293497   -5.58005388476623   -4.21836769229533
H        -1.94998605792362   -3.84771328608571   -3.19885190414679

