54
CSD_code = FOLLUN | q = 0 | S = 0 | Stoichiometry = C23H20ClF6OPPdS | MND = 4
Pd        1.61283672320294    1.65932545675118    0.27841541060888
S         3.46931201905224    1.99272431931623    1.66489920348576
Cl       -0.09578158975571    1.03311968831527   -1.03091149799315
P         0.14083607187318    2.89795378942442    1.39398399762989
O         2.96762129287435    0.29426526195509   -0.55318903788617
F         2.23519504298962    1.27161126156579   -3.04385247730981
F         2.77420757491367    2.88830528486433   -1.71714448849301
F         4.10877205077851    2.29537887600695   -3.29501436058761
F         5.07313195449290   -0.12034421364506   -3.32323190753795
F         3.51756925108129   -1.28876473677771   -2.44140308284538
F         5.39120468125855   -1.05955167747917   -1.41726644370804
C         3.89916836473774    0.80279480469139   -1.36278683236713
C         3.25940564262847    1.79434933104391   -2.39069047918585
C         4.47247057520769   -0.41291347952434   -2.15548950653158
C         3.67267907911409    0.29603627742961    2.29193780036415
C        -1.64237046646133    2.93301612842209    1.01351281544496
C         4.90618999210540    2.13014090625701    0.59033649765263
C         5.03755759409904    1.58811609764767   -0.68768668841409
C         6.22709288631297    1.81391676641451   -1.37593685932057
C         7.25598840976821    2.54517426216154   -0.81112906853944
C         7.11535676420460    3.08139824170490    0.45669159492858
C         5.93890793708881    2.87445233606047    1.14855188113023
C         0.59251798726939    4.64340777219528    1.61921132965997
C        -0.17396313708566    5.54820897231835    2.34760845761365
C         0.23357669632155    6.86541469976403    2.45803180085619
C         1.39737479125092    7.29040814702875    1.83702761970931
C         2.15429057619502    6.39833881652193    1.09496395270378
C         1.75239898084999    5.07947989830244    0.98511690297773
C         0.17387678011564    2.10040225616599    3.03552264074470
C         0.19134756741804    0.70376093110667    2.99469068322286
C         0.23185948298771   -0.02272680663082    4.17042930548141
C         0.27440185184963    0.63790350641332    5.38995139370681
C         0.27965743512577    2.02166330581955    5.43064061965919
C         0.22971275314570    2.75653773719931    4.25686980258622
H         2.92402928106252    0.16840268695949    3.07103375648342
H         4.67321985834642    0.20278661662198    2.70594643522645
H         3.51439434550222   -0.40906679168113    1.47644083743051
H        -1.78375259577660    3.45101899939594    0.06597881620407
H        -2.19174244758713    3.43294408406212    1.81077690446990
H        -1.98547977175387    1.90579257335759    0.89819215456976
H         6.35948015263108    1.42503175633864   -2.37160898766707
H         8.16568339311203    2.69668233413246   -1.37072510607815
H         7.91148490092947    3.65693282020176    0.90291688002202
H         5.79668185083096    3.28861393860668    2.13529054366545
H        -1.08972966011242    5.22770064106507    2.82324991707542
H        -0.36118736651918    7.56523646181218    3.02655062288968
H         1.70832681088874    8.32063858823678    1.92485404466785
H         3.05283451655615    6.73225323512191    0.59826847419944
H         2.32770827498685    4.37356231191383    0.38947050559887
H         0.17521616928994    0.19520396162826    2.02460947546500
H         0.23829896603655   -1.10237589732275    4.14004008902988
H         0.31217712993187    0.07142375107697    6.30840319812106
H         0.32530200965625    2.53344110333016    6.38058558011028
H         0.24855056653449    3.83587260484061    4.29216487832584

