73
CSD_code = FOLRUW | q = 0 | S = 0 | Stoichiometry = C38H32P2Zn | MND = 3
Zn        9.45640946034788    5.52820122817644    2.74111348808825
P        11.92102936201115    4.74359964943650    4.77107069926185
P        10.02076995267293    2.75640033752083    3.81840430407657
C        10.31370635535459    4.36053941743013    4.34991934826504
C        10.10361172103615    7.42421436199712    2.32722634950487
H         9.31614050596974    8.17233706606740    2.39488176966777
H        10.51494935493809    7.50497216925269    1.32214387546906
H        10.89370695011072    7.74493001691553    3.00404889046696
C        11.84996487337082    5.99570069480985    6.07974822694255
C        12.89770188158868    6.16495103859891    6.98038698763984
H        13.77820083611203    5.53953790765489    6.90568215355834
C        12.80624546338741    7.12571510928383    7.97099714056809
H        13.61900393854928    7.25480448443296    8.67132978445710
C        11.67547293521689    7.92108219391319    8.06512637438183
H        11.60895276597759    8.67212193601658    8.83858153233517
C        10.63017036623656    7.75149672870709    7.17090746136242
H         9.74882955736649    8.37125420341208    7.24573224974312
C        10.71388968818656    6.78859908719390    6.18229068248803
H         9.90275169350641    6.63876476151540    5.48119743035772
C        12.94818583483611    5.53109977246091    3.46576986088555
C        12.75583530652430    5.10847451696616    2.15563562981847
H        12.05329961012776    4.30644501217141    1.95717970565173
C        13.46019887170806    5.69332792435008    1.12083075682350
H        13.31149921609419    5.35279792502590    0.10652913724334
C        14.34636037252787    6.72449649554745    1.38828865938465
H        14.88751145200674    7.19499204906806    0.58063706632193
C        14.53117270002670    7.15962177528017    2.69043442592139
H        15.21577755945633    7.96964017474194    2.89686235337277
C        13.83802927958014    6.56628878472713    3.73023045297583
H        13.98215021449163    6.91097866463291    4.74445415382295
C        13.01469668846198    3.46211913535344    5.45262166795426
C        12.58025514086022    2.82349332892220    6.61132148525001
H        11.66753812708431    3.16010352444230    7.08610883724163
C        13.30805244305443    1.77390500588042    7.13569592644463
H        12.96857627829701    1.27609579490779    8.03239243275793
C        14.47358870488520    1.35941686812359    6.50646115814983
H        15.04269221336602    0.53757545799910    6.91564973691480
C        14.90764481704668    1.99576159480974    5.35524709507471
H        15.81630651245799    1.67231977549438    4.86843636438311
C        14.17772116222260    3.04267342781443    4.81923544325408
H        14.50819364475971    3.53640118309519    3.91556817348856
C        11.22344305889272    1.81037560821364    2.82473854274374
C        11.19889055905588    1.97142071941815    1.44164774315171
H        10.40542068293925    2.55645313448370    0.99068688548567
C        12.16814942424823    1.37725706867245    0.65624119685928
H        12.14079874211679    1.49822715232062   -0.41703164418918
C        13.17357204499426    0.62673285636041    1.24598152780104
H        13.93249223432432    0.16403485385486    0.63236952081535
C        13.20323618471389    0.46763217705859    2.62183352180705
H        13.98392237277527   -0.11973739026433    3.08355145560496
C        12.23610317668924    1.05975776664306    3.41306565961580
H        12.25592564251833    0.93055783884688    4.48659281362638
C         9.62785026463026    1.64210133941031    5.21196387554536
C         9.14657501137856    2.25540075217763    6.36264554828082
H         9.07019366571888    3.33634741614240    6.37491100854950
C         8.78650256802131    1.49891776757341    7.46141477254326
H         8.41418153022385    1.98185247270736    8.35357627867895
C         8.90425583961404    0.11901913947685    7.41550885377069
H         8.62918394674349   -0.47671411840322    8.27373264365433
C         9.37006227064863   -0.49867848267318    6.26631751495789
H         9.45418571467220   -1.57554784106392    6.22850578912974
C         9.72690079718132    0.25578659472122    5.16290595528028
H        10.08480421566913   -0.23483967281351    4.26769223057759
C         8.51347298406226    2.79281216399397    2.82538557115967
C         7.80377034324821    1.61003159003681    2.62800033469808
H         8.13169353377243    0.69050571087881    3.09690463838405
C         6.67434340071150    1.62627968702910    1.83531528944500
H         6.10833131839638    0.71909631269070    1.67466793012647
C         6.27284338078847    2.81693363907985    1.24792694090206
H         5.38753923412093    2.83411133000051    0.62609807570118
C         6.99775436840100    3.97943972525950    1.45180639363149
H         6.66209574356317    4.89228185217821    0.97519125232085
C         8.14571193336538    4.01160025183925    2.24617260756443

