49
CSD_code = FOLTIL | q = 0 | S = 0 | Stoichiometry = C18H23Br2CdN5 | MND = 5
Cd        0.84294876964139    3.64168226230781    8.48017448975112
Br        2.46276806225428    3.64167264266250   10.41760029990492
Br       -1.51344079767490    3.64168818686169    7.62055807405892
N         1.51853414455942    5.83975098815150    7.64444230062455
N         2.66514455469790    5.92163997277583    6.95009290765822
N         3.04660582049348    3.64168230012100    6.59856818285645
C         0.79419765864431    6.90137679002870    7.32284251602024
C         1.49430673229004    7.67965650392613    6.38712952764251
H         1.17040670087086    8.59688763466133    5.94030962887018
C         2.68349428530979    7.02074330300573    6.16231301982064
C        -0.54418860801119    7.15729337717039    7.91248298063268
H        -1.31976767532061    6.69863501865285    7.29826528080935
H        -0.73374780354380    8.22625510566530    7.96685316330315
H        -0.60488452562034    6.72659265430339    8.91199820584166
C         3.81320607270572    7.36602958897696    5.26227124776648
H         4.73504395888368    7.50701977970688    5.82644134828152
H         3.58457501077255    8.29023073849483    4.73961485032624
H         3.97251055214130    6.57993372215228    4.52347814798847
C         3.64109059748343    4.87573575151985    7.08589899752572
H         3.88073349498614    4.74884934948450    8.14915148085834
H         4.54707387340254    5.17172745874429    6.53726444513594
C         2.85613839533674    3.64167861528334    5.17152614151618
C         3.93542857458313    3.64168224968195    4.29470312786319
H         4.94789184790805    3.64169055125678    4.67660607766337
C         3.71468780713109    3.64167451508511    2.92898353932757
H         4.55538046022186    3.64167692051171    2.25072794131559
C         2.42065728727732    3.64166273908814    2.43454538926671
H         2.25291120534108    3.64165550404794    1.36833502244887
C         1.34615661154179    3.64165942279826    3.30749906949002
H         0.33659701314752    3.64165015987945    2.92704627929275
C         1.56156951342962    3.64166747583530    4.67511425263069
H         0.72728669033950    3.64166511678268    5.36394273230510
N         1.51852587884529    1.44361605460171    7.64442987633447
N         2.66514130165191    1.36172479443227    6.95008914365962
C         0.79419066191809    0.38199054533961    7.32282627930764
C         1.49430620075731   -0.39629170384456    6.38712021957477
H         1.17040890393759   -1.31352359925255    5.94029985977611
C         2.68349613991190    0.26261991270571    6.16231164104463
C        -0.54420133742959    0.12607724147732    7.91245517700713
H        -1.31977434524753    0.58473187098509    7.29822708915534
H        -0.73376103436182   -0.94288413823877    7.96682987551151
H        -0.60490750984931    0.55678390125826    8.91196715320649
C         3.81321393997274   -0.08266801138174    5.26227806548615
H         4.73504727182900   -0.22366092216723    5.82645492784263
H         3.58458472639731   -1.00686797915761    4.73961876787046
H         3.97252563916503    0.70342849088374    4.52348719053738
C         3.64108772634820    2.40762785247069    7.08590075041498
H         3.88072670683920    2.53451294617270    8.14915427203755
H         4.54707284408898    2.11163634408764    6.53726904243873

