65
CSD_code = FOLWUB | q = 0 | S = 0 | Stoichiometry = C18H41MnP4Si | MND = 6
Mn        2.32426360613868    3.62661139526769    6.44476071856070
P         0.45053837894253    3.11849405380945    7.49115173802467
P         3.47394217842661    2.10219139242509    7.63805079032247
P         4.24202904496379    4.03746081402964    5.45198147624347
P         1.72717266532351    1.96965025855409    5.02114515841195
Si        1.65630185605383    6.08197141628088    6.81365892930036
C         1.05722623823360    6.51385805071159    8.58047286812125
C        -0.62329338428309    7.42723930977807   10.06750978010798
H        -1.58950931912947    7.89357658000260   10.20370646705607
C         1.83793713228209    6.24696311894091    9.70124408852831
H         2.80448296308395    5.78074687104242    9.56692983938442
C        -0.17664459527956    7.11979767216186    8.79437501039589
H        -0.79626209243718    7.36344105552870    7.94292153423766
C         0.16649827149936    7.14193271673716   11.16793990303693
H        -0.17881679350620    7.37873486708833   12.16452503228542
C         1.22060011285811    2.41365179891761    3.31283123359497
H         2.09623728345930    2.65730100763012    2.71346703756880
H         0.57314243380400    3.28982723181244    3.35612213300339
H         0.68798576633680    1.57591679432504    2.85747571522470
C         5.61854907256162    3.06021627555507    6.22774661219271
H         6.42937749416141    2.90248123159439    5.50875786373790
H         5.99779365930153    3.67352867568917    7.05296529605641
C         4.54847744985354    3.69120685695049    3.67275551352492
H         4.36083040235047    2.64065362629217    3.45341406108335
H         5.57650710563577    3.94386865871526    3.40833151138399
H         3.85820444385265    4.30823685004124    3.09577395135344
C         1.40631458871986    6.55490325155374   10.97878830435702
H         2.03491929372131    6.33545666533047   11.83169788223317
C         4.15259056476504    2.69786942705058    9.23671659237361
H         4.74319386639035    3.59764672308268    9.06106612901823
H         4.77005394717966    1.92893753950698    9.70546592234956
H         3.32355211651346    2.96063699653773    9.89555172475771
C        -0.06663265971634    1.39493884850512    7.06208331406664
H         0.58114267109681    0.69366445237939    7.59422148770746
H        -1.10015502306211    1.21795267221666    7.38099373152822
C         2.59895679011275    0.40266606248814    4.56046868139979
H         1.96048584115034   -0.18257660701458    3.89644422192861
H         2.84411264651170   -0.19227345752379    5.43782819893174
H         3.52368360215392    0.64478910833469    4.03436646385740
C         0.26755368542542    3.03791545375497    9.31338456786429
H         1.01628656124018    2.36192709048811    9.72751328242773
H        -0.73184293736140    2.68559554528202    9.57427318843175
H         0.42499261452928    4.03724486202706    9.72112765216994
C        -1.11105483859619    4.00024041142368    7.10287371920669
H        -1.09022139640348    4.95918835844425    7.61867753384165
H        -1.97296084143417    3.41925209178335    7.43581967589453
H        -1.16724267522899    4.18268299514656    6.02945829006876
C         3.10670132699305    0.38638337752324    8.22579514736714
H         2.43049249847785    0.45132112373770    9.08049245697986
H         4.03670158599648   -0.08797273219169    8.54518320010894
H         2.63972852526086   -0.22760918853764    7.45789235575679
C         5.06848128456426    1.75250984740237    6.76488600068842
H         5.76555627522824    1.26780646723587    7.45909227654227
H         4.85984448358129    1.06057282454116    5.94326922637822
C         5.03459739425389    5.68963631504779    5.50227779868796
H         4.45199748394477    6.36684817458250    4.87844148749525
H         6.06020783580245    5.62599775051128    5.13453355423796
H         5.02231200423721    6.05976803340598    6.52678536845762
C         0.09622376714568    1.25692955130009    5.56121326149513
H        -0.66918000515979    1.86294308816039    5.06198400805132
H         0.00199458982639    0.21977309059844    5.22145763488056
H         2.94782630350532    4.36109512781920    7.61785838453798
H         1.62736433568971    4.30566246413721    5.25877760876371
H         2.70093586786985    7.11354519780050    6.59099630722088
H         0.55211465063569    6.65877241622012    5.99912909501904

