83
CSD_code = FOLYEN | q = 0 | S = 0 | Stoichiometry = C38H28FeN14Se2 | MND = 6
Fe       11.21189925961140   12.11324000399340    6.73008654201872
N        10.04781016919895   12.25424008734386    8.31945748021146
N        12.23477262849831   10.95656901115776    7.95488699006419
N        13.41369266412088   10.35179416839459    7.95996553282683
N        12.68072941146646   10.42288827843838   10.03021120279580
N        14.96024560735763    8.95271667798921   10.89806059183322
N        16.02226022419318    8.37226378945697   11.35532325034776
C         8.89890696364672   12.91522569767379    8.40204727470347
H         8.55068480686108   13.35747386101001    7.48043018878628
C         8.19286857209348   13.05159149046029    9.58517023798003
H         7.26592138630415   13.60224668069326    9.59777112317030
C         8.69696580389929   12.48072367464028   10.74655593716588
H         8.17434459526300   12.57730493284932   11.68547617275499
C         9.89000377304573   11.78507930218217   10.67800210880098
H        10.32165380567803   11.32897300031879   11.55451189283968
C        10.53617229003122   11.68863942447857    9.44898581618711
C        11.78044011713737   11.01103718630353    9.20546911372988
C        13.69575831502698   10.03167324637269    9.20485811980174
C        14.90883343975117    9.37554337796341    9.63851356183716
C        15.98027948627370    9.20531940594794    8.74642760616427
H        15.89639342747066    9.55981587244900    7.73190150241411
C        17.10445683309912    8.58386015664864    9.24085962964489
H        17.97674373677195    8.41182242357836    8.62904110520496
C        17.07210488957722    8.18515943005684   10.57955656583514
H        17.91337709720795    7.69664427260166   11.04949089354882
C        12.63338120381734   10.30314174452323   11.44247956314148
C        13.18994547092966   11.30004757039311   12.22966862296545
H        13.64947178881435   12.15990741565545   11.76547016914102
C        13.14347231209519   11.17814330959960   13.60467790886021
H        13.57877698029004   11.95202279524200   14.21884284388547
C        12.54849505365547   10.07508404803516   14.20671093356107
C        11.99012283709573    9.09175749224462   13.39833537483548
H        11.52344626715428    8.22950106076762   13.85110147674072
C        12.02759609984006    9.19776502857204   12.02126770654655
H        11.59650737066414    8.43069393620820   11.39566956505761
C        12.53362411816156    9.93989261327137   15.69715030445944
H        11.71889906518361    9.29861162698370   16.02421041179266
H        13.47040234682102    9.49486873057072   16.03291143747568
H        12.43547852783178   10.91209690252288   16.17454293809886
N        10.16896448652229   10.69185120000847    6.00557788385659
C         9.52801220482528   10.34440577889468    5.09008542962825
Se        8.58535838754289    9.87825981556218    3.72445379763702
N        12.37604121760066   11.97247285740971    5.14080857042828
N        10.18901174149651   13.26999325365103    5.50546718013951
N         9.01016372134725   13.87496839171792    5.50044411602752
N         9.74310742832799   13.80392766733540    3.43018931744960
N         7.46453326388729   15.27523442435697    2.56246567195751
N         6.40284832296422   15.85615005719059    2.10502021339520
C        13.52483412008174   11.31136541075615    5.05838711519363
H        13.87314969530840   10.86954595566773    5.98017331284067
C        14.23076431177944   11.17462727054759    3.87521346049124
H        15.15772342190649   10.62399620328519    3.86269777214851
C        13.72661675114443   11.74536630361475    2.71381686339872
H        14.24910738177985   11.64845157405454    1.77484995574741
C        12.53364533459081   12.44114842959560    2.78224815676449
H        12.10201867201825   12.89706902582600    1.90563352153460
C        11.88754898737745   12.53789103810483    4.01128637788667
C        10.64329476175038   13.21553415386210    4.25486688665591
C         8.72817441867375   14.19527229127058    4.25558071807803
C         7.51538212346349   14.85193745047599    3.82187638382642
C         6.44372978745158   15.02232507039468    4.71368346218851
H         6.52719429394989   14.66760691228269    5.72816690753222
C         5.31990792558762   15.64428536042279    4.21906316799659
H         4.44748780538280   15.81646990172877    4.83065649976926
C         5.35278312454200   16.04329541864598    2.88046843936769
H         4.51176557300793   16.53208739524175    2.41036415902132
C         9.79056205789321   13.92362045724011    2.01793037973147
C         9.23271972727161   12.92744240187201    1.23074060365359
H         8.77195413314972   12.06823539731746    1.69490900024946
C         9.27956085555076   13.04916411290655   -0.14427417361383
H         8.84332032148702   12.27579044159180   -0.75841181262087
C         9.87622561314425   14.15130467103894   -0.74630153349767
C        10.43583004504176   15.13393392511043    0.06208169170954
H        10.90377441395808   15.99550322886191   -0.39068598663503
C        10.39795258053047   15.02812251040528    1.43914666934211
H        10.83002875648208   15.79463396038019    2.06474607579619
C         9.89162640611038   14.28637678086491   -2.23674390000462
H        10.70855405285374   14.92494506097688   -2.56376670780468
H         8.95633938585105   14.73460240091534   -2.57254606358586
H         9.98652177456993   13.31379964587475   -2.71410468705455
N        12.25549658998537   13.53449836762222    7.45399568728937
C        12.89705322023630   13.88154436245003    8.36921839152195
Se       13.84117205562944   14.34766393507407    9.73382132733359

