95
CSD_code = FOLZAI | q = 0 | S = 0 | Stoichiometry = C38H40B2N4O10Pd | MND = 4
Pd       -1.08699745292534   -0.00016483996862    4.91853673411939
B         2.40159690091447    5.52583262795524    6.61861439713452
O         3.71555141519725    5.82282741587843    6.81712627909864
C         3.80513597837642    7.01840315957563    7.59754431395443
C         2.34937885833238    7.61161723346415    7.51252669176148
O         1.56661870021464    6.49271172399567    7.08885203747221
C         4.89922437679905    7.91442369388286    7.02162791838523
H         5.85973296007630    7.42018924461353    7.14384642264025
H         4.92359998888982    8.86368693549887    7.54924600275114
H         4.74556385906070    8.09240868759388    5.96222458188087
C         4.20029610433028    6.59488213164717    9.01705430111957
H         3.45065395676596    5.92967656636604    9.43772245530257
H         4.32681940265505    7.45930585763107    9.66142469247343
H         5.14108109545427    6.05160606941545    8.96624552441518
C         1.79402938499814    8.14847130049290    8.82933707421306
H         0.79594173681532    8.54254631598845    8.65551968922457
H         2.42629547714759    8.94777836373623    9.20553530758700
H         1.71894146679668    7.36387921288393    9.57508547554330
C         2.20116539924700    8.68754613012407    6.42983539092025
H         2.55589776819010    8.31367990307663    5.47260867169314
H         2.74374514478051    9.58917417357692    6.69625055288562
H         1.14579314941687    8.92832488578844    6.32546214794689
C         1.89658940180353    4.22817622688596    5.89880654676437
C         0.52984460949684    4.01064644915315    5.70356329374741
H        -0.16747541040418    4.74665955645867    6.07271246712134
C         0.07373730334479    2.88058833351854    5.05955818871122
H        -0.99714348473785    2.71290851339573    4.89354486040038
C         0.98616273059723    1.93132357607218    4.58411149140830
C         2.35117773298270    2.13527956312259    4.76644785177030
H         3.05752739127094    1.38974919860180    4.43062973811139
C         2.79055507403550    3.27004771629219    5.42227113196197
H         3.84693054754557    3.42681938208239    5.57707422543054
N         0.44714925958540    0.80578984643432    3.94642629376924
C         0.94507824331654    0.32999195268860    2.85807225426102
H         1.86137603856131    0.76845570972368    2.45603881453132
C         0.32785157776840   -0.68010813419088    2.04939894561265
C        -1.06076803741456   -1.03761994339277    2.21607105384707
O        -1.83047590853563   -0.55795384490117    3.11195658613640
C        -1.61066197607562   -1.95636135414704    1.27280156437095
H        -2.65057601536957   -2.21428541940085    1.40075333815279
C        -0.86363962287625   -2.50652906555044    0.27611464878408
H        -1.28451315154935   -3.21729044489218   -0.41853274678267
C         0.48841819791655   -2.14867500080571    0.13559902197199
C         1.05985438798119   -1.23620262039815    1.00223850408937
H         2.09644451912108   -0.96560122615123    0.85980071096256
N         1.26746291606699   -2.71550840051349   -0.91196366972634
O         2.43546743479694   -2.37929768681675   -1.00062927876636
O         0.72544453746801   -3.50529902136374   -1.66361378760882
B        -4.57564632934670   -5.52580586582979    3.21850418435074
O        -5.88960653924940   -5.82276122450715    3.01998047731566
C        -5.97921797547234   -7.01832553023524    2.23954495152800
C        -4.52347313366511   -7.61157131818585    2.32454504173637
O        -3.74068959593810   -6.49268636806718    2.74823174902843
C        -7.07331591417049   -7.91433290353734    2.81546371458131
H        -8.03381344736692   -7.42007455576624    2.69326205213637
H        -7.09772427295048   -8.86359246497349    2.28783869234815
H        -6.91964563440056   -8.09233003902025    3.87486355426856
C        -6.37437802478087   -6.59479047490973    0.82003979873669
H        -5.62474478953445   -5.92956633393008    0.39938489414388
H        -6.50087822329769   -7.45920939223682    0.17565753348272
H        -7.31517568638136   -6.05153677722795    0.87084686220221
C        -3.96813592736006   -8.14842563157961    1.00773005438032
H        -2.97005618076462   -8.54252561857089    1.18154001828478
H        -4.60041792205794   -8.94771511959212    0.63152136829499
H        -3.89303312549305   -7.36382630874054    0.26199200992590
C        -4.37527455729836   -8.68751154374546    3.40722669422133
H        -4.73001063821653   -8.31364291856911    4.36444993587120
H        -4.91785584195668   -9.58913862601802    3.14080873650128
H        -3.31990371494410   -8.92829280998186    3.51160627244016
C        -4.07060222072096   -4.22821778060585    3.93840860787562
C        -2.70384622505211   -4.01075573848165    4.13364146168752
H        -2.00655906115086   -4.74677122630819    3.76444550281744
C        -2.24768675481957   -2.88074496566910    4.77767972583814
H        -1.17679798386597   -2.71309466591001    4.94366966959550
C        -3.16007220462698   -1.93148409985228    5.25320430253848
C        -4.52509552326448   -2.13536797255232    5.07088355559812
H        -5.23140611355454   -1.38981704826413    5.40673738056771
C        -4.96452700742787   -3.27009410097816    4.41502917799960
H        -6.02091052470305   -3.42681669179477    4.26022660040348
N        -2.62097495998234   -0.80606777992720    5.89095345140577
C        -3.11888429426861   -0.33019217865542    6.97929857311699
H        -4.03545081458616   -0.76828996547591    7.38113241449483
C        -2.50178169125971    0.68015994796849    7.78770841499022
C        -1.11325985417031    1.03795779502385    7.62075211814347
O        -0.34358991989427    0.55805390350635    6.72499648595933
C        -0.56323052933598    1.95639705132637    8.56425811619046
H         0.47677834199825    2.21405488740551    8.43648842881014
C        -1.31021564844649    2.50650187003922    9.56102782603516
H        -0.88935638575264    3.21728148934049   10.25565966454121
C        -2.66226894214507    2.14861679473423    9.70160487324899
C        -3.23374512925397    1.23621970790063    8.83492161628605
H        -4.27039950267717    0.96583109311490    8.97722194872171
N        -3.44132744833525    2.71534943885912   10.74921579688471
O        -4.60936783247419    2.37931084189162   10.83771905624866
O        -2.89930826385902    3.50513056345464   11.50089792267348

