60
CSD_code = FOMBIV | q = 0 | S = 0 | Stoichiometry = C29H25ClN2O2Ru | MND = 9
Ru        8.23084908147615    0.84448446712029    2.41891674512393
Cl        5.98592613462645    1.19299627030590    2.51019163258043
O         8.32792770555406    2.46331037397016    1.20277383978464
O         8.82990141509698    7.08300569056424    4.06530811922668
N         8.76154000962922    2.04483212858465    4.99354778685462
N         8.55198416703321    2.22628770813333    3.77622101547961
C         8.70238370192648    4.65706030824010    4.05564732836098
H         8.79590130765326    4.53266877877954    5.12163186392674
C         8.56303353056178    0.80579148284774    5.57929612465136
C         8.56011311899371    3.50278418112027    3.27179229232654
C         9.63920284470732    0.09760525917701    6.13782290387439
C         8.42348206945067    3.56286165129624    1.85899889393068
C         8.43850822512139    4.84167774547250    1.25404032391535
H         8.33527988772961    4.90696126415359    0.18285447865450
C         7.77555328572206   -1.89868761022295    2.45416796740624
C         8.66245377125135   -1.19022685204384    3.29078500635320
C         6.80577543603530   -2.95311594569860    2.83655936273848
H         6.80665196716020   -3.75198142742968    2.09640777537410
H         7.05158806186003   -3.35246187242528    3.81766722329938
H         5.80015804940812   -2.53245132786583    2.87590471915817
C         8.57073171863662    5.95974041204118    2.02836874166366
H         8.57422644786613    6.94157218090423    1.58148586048583
C         9.72548808471112   -0.47247137191936    2.97760738438349
C         7.26700023380171    0.29186420669694    5.65637494291471
H         6.45140909339423    0.85430784318031    5.22164477316027
C         9.04272927963062   -0.64198581398120    0.78794096254946
C         9.37676094167336   -1.10571991983270    6.78048931558327
H        10.19897040677105   -1.65523888577955    7.21554741232138
C         7.03467100878149   -0.90458469051965    6.30845478559635
H         6.02841737292910   -1.29128521370550    6.36860623842002
C         8.07432401603149   -1.40568842876932    1.18353051675832
C        10.06207420723870   -0.12191511300391    1.60926540309224
C         8.70440185032004    5.88655355849239    3.43328157956381
C        11.01940562410969    0.56651096891672    5.93946222210045
C         8.08837482863984   -1.60115812312397    6.87630123065001
H         7.90829729403512   -2.53479924594144    7.38848337052417
C        11.99547718987132   -0.32813918538717    5.50604417590742
H        11.72876804840013   -1.36085797712146    5.33186557083392
C         8.95469209973472    7.08348980575020    5.46765420924021
H         9.03175104029264    8.13020163681395    5.75662856615702
H         8.07795557629442    6.63753390019106    5.94723210564349
H         9.85521243026947    6.55039737441053    5.78862836318596
C        11.38114439714905    0.47104133766901    1.20562863714148
H        11.33196398997894    0.75065215565079    0.14793052422076
C        11.36793224370182    1.90013826171806    6.13580398937337
H        10.61847110620157    2.59531227193596    6.48112033474508
C        12.47411226652479   -0.58544237727537    1.39925863384578
H        12.25240141908594   -1.47651738189407    0.81562406801757
H        13.43672530806465   -0.19150148045948    1.08252570949177
H        12.53711663448018   -0.86250241988471    2.44955227946044
C        13.28831807394976    0.10311681726587    5.27039946240025
H        14.03556252344105   -0.59856609906001    4.92804290980860
C        13.62522661137850    1.43188562464425    5.46684191872993
H        14.63405750423156    1.76852735935434    5.27922904409077
C        12.66218158762772    2.32718119515987    5.90298402821291
H        12.92229929454767    3.36381917322708    6.06077864387272
C        11.68084983488531    1.71548667834383    2.04317439923813
H        12.65860147623229    2.11745106647222    1.78784523518393
H        10.93343327628720    2.48693361141095    1.85825581031074
H        11.67574988780093    1.46645401333256    3.10347123810316

