25
CSD_code = FOMGUJ | q = -1 | S = 0 | Stoichiometry = C11H7MoO4S2(1-) | MND = 6
Mo        7.55812772756725    5.37946273985338   13.44846511736767
S         7.32747775503701    6.85787564861835   11.34500302041482
S         6.34177882486246    3.72418353463865   11.99219581985189
C         6.92489445292428    5.71898008873900   10.12506675055953
C         6.98929212242270    6.14595060175804    8.78440738030081
C         6.65605236578687    5.31932395281127    7.74071820958561
C         6.21746004391772    4.02090528476694    7.98406570822977
C         6.12777709813649    3.57975372991005    9.28946705608853
C         6.50300622022288    4.39607614693444   10.34503449633744
C         7.71170786032817    4.12926213342870   14.90660847214536
O         7.81978906498778    3.36971161132197   15.77036035366351
C         5.85162102853895    6.04384455191186   14.12678045980267
O         4.88886824546237    6.46951882260310   14.57750014148712
C         8.48117561033529    6.73378701462653   14.46722568919329
O         9.03054003823014    7.52966667861615   15.09124032154967
C         9.26854925266338    4.81427262312943   12.70434466785178
O        10.29950772811929    4.51896021727842   12.29433771713730
C         7.46608333876707    2.29512423892955   11.85790776432690
H         7.31775085303712    7.15939004352904    8.60558707235233
H         6.72785930792075    5.68157410408116    6.72352952120404
H         5.94281702237258    3.36820316989377    7.16755176796240
H         5.76692294283662    2.58204252871744    9.50090466564637
H         8.40800357762337    2.61068068966637   11.41836592643314
H         7.00214536494104    1.52140000763678   11.24916459557674
H         7.62249215295754    1.93254983659948   12.87066730493293

