25
CSD_code = FOMHEU | q = 1 | S = 0 | Stoichiometry = C12H10CuN2(1+) | MND = 4
Cu        4.98943466467136    1.52323551345005   10.97083938538474
C         4.19244541148775    1.48339655888152    8.33629543571796
C         3.40569350914335    1.40683783754380    7.18942054105797
C         2.05430443218097    1.12403842922482    7.30742239295704
C         1.51586413905252    0.92377683750765    8.56871338049231
C         2.35757690562817    1.02053337255463    9.66428475454417
C         5.63638269159491    1.77521800417324    8.30738961523032
C         6.35795571846115    1.94202933693888    7.12774596739016
C         7.71476413906542    2.21635674704141    7.19155125248646
C         8.32320115738922    2.31921432502704    8.43249757471142
C         7.54360985016429    2.13690653241694    9.56270804004614
C         4.44322835586939    1.29738014415321   12.84995203400384
C         5.63575713016123    1.59096037560136   12.83149457576180
N         3.65097021150470    1.29160488640879    9.55160256998338
N         6.24530437612837    1.87283875579749    9.50192799633986
H         3.83132108169291    1.56794390217632    6.21364153687732
H         1.43386109628141    1.06194030161365    6.42699251438636
H         0.47054774540475    0.70003110564937    8.70330806619818
H         1.98237467304291    0.87507943051868   10.66698528300243
H         5.87779458319310    1.85685015901139    6.16783241266597
H         8.28526552200063    2.34691386288553    6.28519847153101
H         9.37506967527056    2.53322160951177    8.52551542360072
H         7.97468515401215    2.20558367824018   10.55103529809391
H         3.47280002087172    1.04286471512331   13.19043870857978
H         6.62388775572705    1.81374357854903   13.14200676895691

