55
CSD_code = FOMKOH | q = 0 | S = 0 | Stoichiometry = C22H28N2O2Zn | MND = 4
Zn       -0.00000329997722    7.16901650809247    0.94753488314471
O         0.87761252909162    5.92779425815060    1.96831001571053
C         2.14780809461331    5.73678451353773    2.01741288958937
C         2.65645452375758    4.78149729296393    2.93659735307774
H         1.93535129199672    4.27191349371054    3.55794921381252
C         3.99348654535545    4.51665473149238    3.04071039636261
H         4.34409779023906    3.78286130783443    3.75245804625812
C         4.91751519212050    5.18969991686037    2.23258977761687
H         5.97160796017025    4.97658568700909    2.32235630813968
C         4.46752213920301    6.11708784013907    1.33401053593193
H         5.17280086577247    6.64319034426762    0.70422031345460
C         3.09585006720979    6.41620196483706    1.19034542746396
C         2.74143976603049    7.38983155133356    0.21972113361575
H         3.58936958697192    7.82891145633654   -0.32145702051379
N         1.55734439438248    7.78591118244205   -0.09973661001403
C         1.42037604649135    8.76271838442675   -1.15436963889592
H         2.40439135657446    9.16164074250607   -1.43964083756104
H         0.99134871157335    8.25453376857931   -2.02685941997539
C         0.49417426856183    9.90757159603721   -0.74886424406951
H        -0.47423711172445    9.49256345721171   -0.46220935333109
H         0.34290759483474   10.55522003818795   -1.61594830063755
C         1.05265399099800   10.72195526276172    0.41463487989766
H         2.01720257825139   11.15152497141942    0.13033303616537
H         1.21145854568998   10.05760307125859    1.26633532096613
C         0.09458647282770   11.83258671196739    0.82384373788937
H         0.51112646460380   12.41227908791922    1.64393539393896
H        -0.85175101694577   11.40729129686219    1.14959936567632
H        -0.09657302074694   12.50478561725413   -0.01082557768340
O        -0.87762931791374    8.41025373249251    1.96828208545306
N        -1.55734310314442    6.55209214520805   -0.09972703878151
C        -2.14782930182327    8.60123839395862    2.01739540159640
C        -2.74144319150077    6.94814257889193    0.21974557793867
C        -1.42036343546678    5.57528792769570   -1.15436200823419
C        -2.65648764879883    9.55650308830789    2.93659615245877
C        -3.09586565351377    7.92178389925749    1.19035330958728
H        -3.58936941332268    6.50907001313496   -0.32144905977483
H        -2.40437486515041    5.17635480867147   -1.43963256847225
H        -0.99134267153531    6.08347739606898   -2.02685241639804
C        -0.49414675451347    4.43044571826149   -0.74885937713629
H        -1.93538956263893   10.06611033604515    3.55793421126781
C        -3.99352441189808    9.82131484716045    3.04072333003607
C        -4.46754284556274    8.22087123844130    1.33402880304696
H         0.47426200283274    4.84546272808320   -0.46220729758671
H        -0.34287752129068    3.78279903410939   -1.61594456258459
C        -1.05262813794386    3.61606395473552    0.41464108638003
H        -4.34414357268565   10.55512049491792    3.75245500578493
C        -4.91754672813687    9.14825506182282    2.23260662886806
H        -5.17281659867866    7.69474195003864    0.70425561346701
H        -2.01717560694922    3.18649068656424    0.13033982176982
H        -1.21143421193828    4.28041496992767    1.26634247697515
C        -0.09455551530173    2.50543477902809    0.82384618576456
H        -5.97164269710566    9.36134854351646    2.32238064814988
H        -0.51109744112712    1.92574513976613    1.64393840724004
H         0.85178254618548    2.93072798806481    1.14960308665301
H         0.09660333099462    1.83323249042943   -0.01082052950331

