57
CSD_code = FOMLAU | q = 0 | S = 0 | Stoichiometry = C22H28N2O4Zn | MND = 4
Zn        1.14011685574616    2.41985968764328    4.50229013647145
O         0.38463144147518    1.12911664181065    5.56852309847318
C        -0.86659673236803    0.83923492997620    5.64324127897113
C        -1.26864231864655   -0.12521030883918    6.59829590779736
H        -0.48158446885368   -0.53677250111014    7.20982258709668
C        -2.58108906891026   -0.50868293145990    6.74087023964616
O        -3.03538663451297   -1.42081131137436    7.63568990985612
C        -2.11136809455989   -2.02460363540696    8.50958974799710
H        -2.69349946997985   -2.69956257363646    9.13521325365620
H        -1.61374981131457   -1.28149298014724    9.13991647378881
H        -1.35713866051969   -2.59658697522475    7.96053162025236
C        -3.57098969817747    0.06289744692877    5.91248801499497
H        -4.59291178892574   -0.25403517964956    6.04042589343987
C        -3.21403082133711    0.99441930626613    4.98510171499704
H        -3.97403653667455    1.43405855282584    4.35375060643998
C        -1.87737975030105    1.41694347354658    4.81192483548721
C        -1.62364702659121    2.40514735985028    3.83118658213948
H        -2.50973568557946    2.75890073643927    3.28920429981002
N        -0.48139165413055    2.91311489303600    3.50909364459209
C        -0.44755333440710    3.94849619087697    2.50389268636373
H         0.33755635337238    3.69898871572631    1.78323887203425
H        -1.40823699215019    4.00582669475126    1.97238944542646
C        -0.12563363308726    5.30476603713107    3.13564918675668
H         0.78847366026828    5.20551870650566    3.72319291919079
H        -0.93328674357674    5.57643795656499    3.81859512625047
C         0.04798195790916    6.38633883130295    2.07808894992273
H         0.26871799010683    7.34131630898236    2.54773910463614
H        -0.85886488815763    6.49634073436651    1.48637035303856
H         0.86717221670161    6.13707679650636    1.40722616393171
O         1.99517941834925    3.76427527883691    5.41490033473217
C         3.25937762093432    4.00525569823273    5.40220236662069
C         3.75875355971018    4.98363771879967    6.29478241367893
H         3.02971036221487    5.44630344265780    6.94075597172064
C         5.09167986687148    5.31747915531128    6.34019156471960
O         5.63810711290506    6.23807073413179    7.17262146134259
C         4.79731280649266    6.90444093114632    8.08431618566357
H         5.44497773135368    7.57260699396758    8.64994367957625
H         4.31303428670243    6.20090973154359    8.76817789123492
H         4.03196900485036    7.49093470540595    7.56685186645540
C         6.00268927657201    4.67994505596030    5.47055587114111
H         7.04212553658811    4.95940677456760    5.52171815718463
C         5.55055247053682    3.73415983816461    4.60081130109063
H         6.25030670000632    3.24404455360599    3.93774565595100
C         4.19044680917214    3.36008009573328    4.52935569703539
C         3.83501823061397    2.35430760190245    3.59918914657532
H         4.66874872267439    1.96145975446184    3.00368207715007
N         2.65898766591936    1.87129619423112    3.37538786403021
C         2.52216228121259    0.82852430433749    2.38672689310946
H         1.77661617385718    1.15269523873336    1.65287330058507
H         3.47704293867820    0.66296759225079    1.86721466596339
C         2.05061948290542   -0.48194422355292    3.02155872048245
H         1.85445995050612   -1.20048180238602    2.22275489959279
H         1.11689511928984   -0.29626507227692    3.55426802093808
C         3.08077406345515   -1.04654245372658    3.99066427682134
H         2.72869565699764   -1.98604555227445    4.40876698173462
H         3.24528682452886   -0.34906071938046    4.80890823823253
H         4.02897366328691   -1.22690317456397    3.48663184317910

