91
CSD_code = FOMMEC | q = 0 | S = 0 | Stoichiometry = C32H52ClN2PS2W | MND = 5
C         2.96039994897746   17.30162069720082    0.29374132278419
C         2.34393822976618   18.21571130160984   -0.59982045009050
C         2.62187927831652   19.56228513423439   -0.47618354879124
H         2.15579533382965   20.27510182464856   -1.13838783881907
C         3.49239802927125   20.02447200247526    0.49889679879499
H         3.68997199183400   21.08303283885185    0.58289475781033
C         4.10590322529107   19.13570730396075    1.36502662646032
H         4.77978899982292   19.51211555505184    2.11924938883430
C         3.86819621342199   17.77758808285654    1.27530657553343
C         1.39313665300408   17.65202517219612   -1.63317010127901
H         1.87795742478277   16.76253024826367   -2.06418381970175
C         0.09413495310505   17.20525680746383   -0.94547967384433
H         0.29161609584580   16.36920214502516   -0.25918742520823
H        -0.32738973078702   18.02575142204939   -0.36844447088913
H        -0.64001593965036   16.88701306570420   -1.68389858610888
C         1.07427013388084   18.61565285822075   -2.77285468641502
H         1.98828079756147   18.99670233645794   -3.22174361923228
H         0.50514614341264   18.09878426712968   -3.54348345065192
H         0.47723684418269   19.45295946866475   -2.41854582761363
C         4.47139069810346   16.77412021103227    2.22471921197463
H         4.51217703204038   15.80943359200279    1.69619291765465
C         3.53847157338975   16.59363541161465    3.42726250249958
H         3.96107837705507   15.87039329353846    4.12019441850370
H         3.39704223325864   17.53975241615688    3.94680119016036
H         2.56769983607297   16.23017709115379    3.08897468431186
C         5.88064818800208   17.13734505807088    2.68775529898618
H         6.50670567119487   17.41232584748614    1.84221673279611
H         5.86157730866411   17.96557196989830    3.39250184475181
H         6.33059727541992   16.27928157527441    3.18202710866518
C         4.78365132043685   13.28271332936286    1.56120878028152
C         5.95412498578859   13.55569813781911    0.81157674880329
C         7.18699830198606   13.42921962578608    1.42576951095783
H         8.08578146155368   13.62584421690045    0.85978132722002
C         7.29034425283503   13.06295162273557    2.75546440290215
H         8.26223454463868   12.96805073788464    3.21684414929022
C         6.14530807642487   12.82950230362077    3.50144866001397
H         6.24437844392654   12.56053987416395    4.54163975630686
C         4.89175963608903   12.93528293901646    2.93335620045424
C         5.83904319004447   13.97491556224372   -0.63565847773609
H         4.76250415321888   14.04860864501316   -0.87851516995256
C         6.44040556223040   15.36260919524616   -0.86650845769466
H         6.36103252982306   15.62899678640436   -1.91838021618280
H         5.90007724157323   16.10437794379526   -0.28498601101210
H         7.48919264249201   15.38688271946961   -0.58103260570288
C         6.49589145906859   12.94572307070969   -1.55964680806963
H         6.29613498302189   13.19164590718342   -2.60069801699025
H         7.57307389611780   12.93482539873625   -1.41070436875416
H         6.11638640328155   11.94664181985891   -1.35713118045861
C         3.60650718288694   12.71186354716632    3.69699507296561
H         2.89461791877698   13.48322673778048    3.35602820022671
C         3.75853749519377   12.83338759763507    5.21043352816427
H         4.25832616335052   13.76154256855176    5.47815891873995
H         2.77577930365744   12.82769279053816    5.67702100186259
H         4.32764354019198   11.99832613807167    5.61384471579593
C         3.01751281658364   11.34280662433376    3.33517776891131
H         2.08713141395903   11.17791800770099    3.87444185696609
H         2.80825660752528   11.29728379424853    2.26763610422695
H         3.71760291434217   10.54865240386070    3.58897373732412
C         2.26689462028714   10.81758710172902   -2.26864541330932
C         1.42350009858313    9.55308173702247   -2.36553941525892
H         0.83856715037861    9.53390150299579   -3.28229497508179
H         2.07775541679925    8.68252942473793   -2.36747042731110
H         0.75425721384636    9.47187829439029   -1.50971955498502
C         3.03220783924583   11.08750668503457   -3.55745833569395
H         3.60126078885964   12.01201195811477   -3.48074110889003
H         3.72991124830341   10.27083117859032   -3.73561221603278
H         2.36940290012251   11.15900459891047   -4.41501112873916
C         3.24652534496007   10.69706667517162   -1.10096319254931
H         3.72869069653165   11.65605674108606   -0.88743354866158
H         2.73696017146172   10.35976823997820   -0.19901726711446
H         4.02223439885975    9.97203197691613   -1.34100712928806
C        -0.41069374978932   12.49854946812586   -2.86432853671467
C        -0.96204285974257   13.86959790360723   -2.46620164761197
H        -1.09740906542976   13.93789813357971   -1.38286158518696
H        -0.29390377413855   14.66578986090828   -2.79437500411255
H        -1.93335486015735   14.02761265607913   -2.93189916157906
C        -1.42323756515690   11.42073135416661   -2.49737590118467
H        -1.54365183973849   11.35959151011960   -1.41653944136714
H        -2.38968797918058   11.67102618043364   -2.93236571258760
H        -1.13095321720848   10.44374031664953   -2.87064126209605
C        -0.07319273062787   12.48695776635961   -4.34854408009445
H         0.17682815592518   11.48520088268395   -4.69023970888014
H        -0.93468657458091   12.82965577582770   -4.91976120156288
H         0.76218546026606   13.15516022507862   -4.55484455504416
N         2.66590505296277   16.00091325717249    0.23813158742558
N         3.56842879311541   13.37046977322559    1.00216467136278
P         1.16725338362466   12.30476774139345   -1.82178012335595
S         0.60990433911229   12.17412378858523    0.10208507286379
S         2.28239403878341   13.98948709873369   -2.16719461649695
Cl        0.65511504161320   14.65504355964742    2.09045633642477
W         2.15906080205204   14.29614758877286    0.37391157193842

