27
CSD_code = FOMMAV | q = 0 | S = 0 | Stoichiometry = C10H10N2O2S2Ti | MND = 12
Ti        7.29300074466008    3.53469369955395    3.00941380076980
N         8.61974291276541    3.33090228086876    1.65932135145853
S        10.07495233635354    3.00988198315552    1.73682680516668
O        10.54568923065769    2.77978926463043    3.11025202765655
C         7.90358142510661    4.86536738770876    4.87674129479936
C         6.63052344120307    5.27800655877821    4.41941982999906
C         6.79889229805317    5.86096006454213    3.14710622657691
C         8.16588920935796    5.78095118000625    2.80444914029941
C         8.84655402404289    5.17206976948748    3.88169958540957
H         8.14042401154990    4.51757773025201    5.87437780265171
H         5.71122784602457    5.28247967725900    4.99169975338536
H         6.03970865887484    6.39149999647559    2.58683424450000
H         8.62121677346831    6.21462349247146    1.92247035919448
H         9.91800015089629    5.05994549233117    3.97579479329196
N         5.96964165746313    3.73780691121793    1.65581328039115
C         6.68337032278493    2.20409495024211    4.87756052519976
C         7.95474340630963    1.78931681185423    4.41773575164257
C         7.78300693699837    1.20762599763334    3.14525986105492
C         6.41552324600666    1.29044077295583    2.80518337061631
C         5.73800382528998    1.90012027719675    3.88393340886791
S         4.51413043069461    4.05818468260727    1.73025262933078
H         6.44907493085973    2.55157249196377    5.87589180156513
H         8.87501803238727    1.78285348173112    4.98838763149440
H         8.54008491014535    0.67601044752956    2.58315239478562
H         5.95780973926019    0.85793072916466    1.92387560885089
H         4.66696763833879    2.01446515319210    3.97991092565667
O         4.04072186044733    4.28912871519082    3.10263579538377

