52
CSD_code = FOMNEC | q = 0 | S = 0 | Stoichiometry = C21H17F3MnN5O5 | MND = 6
H         3.71624477858101    8.35187171736448   -0.99362236233423
H         3.13172669582210   10.01678629627171   -0.81629460626371
H         1.69731762767815    7.51765465921548    0.23463185445358
H         1.12781452109115    9.17468919715209    0.43388331132023
H         1.21407346098365    8.46005251733327   -1.18562915932291
H         9.93162262162483   10.40834822383055    6.28628028183537
H         7.41969933251992   13.80095352547242    6.88936927769432
H         5.49518497605912   12.27833606610547    6.96933501977442
H         9.97515601879256    8.37994359849986    6.02101620138845
H         7.66427474267194    4.79601388733207    6.08929075940767
H         5.66747726420579    6.17117984550952    6.48847398305094
H        10.93117162453064   12.61560406048324    6.86782610980474
H        10.23575130009765   13.34095384194934    5.42301754084778
H         9.88646609415131   14.04389576226343    7.00127114098339
H        11.05472734191793    6.32214140969188    5.44310100254087
H        10.52721125634843    5.15520387657989    6.66166188904379
H        10.04696180006001    4.94016926571040    4.98361781721801
C         4.77481428334206    9.10966613524562    8.13707307288263
C         3.86909434270725    7.99366078711111    6.00139868796177
C         3.80798045649747   10.46062433226190    6.16136690206270
C         5.52365865005596    9.36597238679704    2.34602578634341
C         6.85620650399224    9.50927100167433    2.77077818827946
C         8.12626428816148    9.63480189180929    2.01824777991776
C         5.01491155777585    9.31371373507482    0.97081105613093
C         3.11350471356346    9.01769955627108   -0.36475914998382
C         1.69286800322319    8.50827909275343   -0.21175648389629
C         7.82505363355456   10.04436221538707    6.48669053049979
C         8.96004037658190   10.84683594748714    6.44239968562172
C         8.85075696952505   12.22459471279917    6.57059249841688
C         7.57355463570175   12.73970798165461    6.77297512953208
C         6.49087666292337   11.88248457319993    6.81164356350580
C         7.86430794198884    8.58148852050594    6.35571112248725
C         9.03607903861142    7.86401382488650    6.13278276170770
C         9.00023169294741    6.48288919796416    6.01366207645207
C         7.75840265942635    5.86817530026075    6.16099955813691
C         6.63660754462511    6.64222774009496    6.37975166643484
C        10.04688965730311   13.10857348093150    6.47145202054524
C        10.23248868279972    5.68430789969964    5.75524765353683
N         4.77888101959756    9.28192468663017    3.45647182994941
N         5.59255086583768    9.36829586014947    4.46926637933079
N         6.84920944586272    9.50473359791818    4.10244047950449
N         6.59550539495444   10.56323172239523    6.66439329382013
N         6.66962364279738    7.97171047335794    6.46487190921365
O         4.55211891078503    9.02637177158404    9.26126413947187
O         3.05153357950210    7.22734042655631    5.76139304586296
O         2.95321252300809   11.20987260095107    6.01145067955520
O         5.71382051972011    9.45412631260445   -0.00497106302890
O         3.70459824462305    9.08968549330936    0.93171644183385
F         9.18801652697646    9.69052721443760    2.85709156188151
F         8.19735948475370   10.74570147676437    1.27124800334648
F         8.36428918020941    8.59509444579534    1.20507276488748
Mn        5.09520690894031    9.23913585290868    6.38736636635501

