83
CSD_code = FOMSEH | q = 1 | S = 0 | Stoichiometry = C38H38IrN4S2(1+) | MND = 6
C         7.55237363800623    5.04511884660383    8.83756391295254
C         5.89904539387670    3.52355561059335    7.90450372450139
C         5.06117377851002    2.59687666871912    7.30685188467326
H         5.44843947348701    1.89045928541889    6.59048529212833
C         3.72831165430487    2.59940508430197    7.65586980863703
H         3.08076983656279    1.87378600183955    7.19122689895136
C         3.19987060802571    3.50410383956899    8.58966806827734
C         4.04838649408559    4.42733199448101    9.17175197045529
H         3.70208791920897    5.14344354671650    9.89425864927469
C         5.40103721294226    4.44710635782417    8.83855729166972
C         8.67022945562634    5.82991942058320    9.27326211507227
C         8.34450103917287    6.80386310909178   10.24069586669153
C         9.38114037445480    7.60302998117490   10.70093236968254
H         9.19517045133056    8.37189104196274   11.43708633354117
C        10.67639281045498    7.43946830355660   10.23025518297511
H        11.46302764618069    8.07498833239935   10.60930367722495
C        10.97488184366855    6.47019108038412    9.28302144405406
H        11.98727408983976    6.35129624450051    8.92971867120760
C         9.97045188148486    5.66024675449652    8.79763114325134
H        10.17614387418050    4.89913728239455    8.05866517520295
C         1.72055717424506    3.43341109905605    8.93095654534734
C         1.31093070471666    4.48049677948748    9.97137246888317
H         0.24760791347447    4.38241577055757   10.17798186378756
H         1.49146790254119    5.48855519906255    9.60284060000662
H         1.85164489158856    4.33260027815329   10.90394788328002
C         1.40669815905523    2.04342104672225    9.50167897592464
H         0.35683855011769    1.98362556902142    9.77780013578598
H         2.00835946246820    1.85378260436072   10.38810202454602
H         1.60963329922640    1.26000428756332    8.77788074577327
C         0.89910201529623    3.67317076706301    7.65663314515012
H        -0.16275457305826    3.64049668398436    7.88760561515035
H         1.10334243250974    2.91851433707991    6.90315403625091
H         1.13026655727232    4.64908211288782    7.23433015291954
C         6.95487252418419    7.73699675565445   13.38181121277476
C         6.86582532141823   10.16181257202444   13.55832601929786
C         6.85126793864875   11.52709930272584   13.79008195366261
H         7.05852202220395   11.91785821650588   14.77320206594293
C         6.57112967163169   12.36670136950656   12.73423920905467
H         6.56307750124209   13.42858194695316   12.91881987910492
C         6.30449434178520   11.88441818608385   11.44349077048651
C         6.31494449291422   10.51842131476226   11.23080586516721
H         6.11800475021152   10.09031783214218   10.26495615914631
C         6.59496493463628    9.64565677838350   12.28014989534982
C         7.06227921931108    6.31121032673396   13.48551837276798
C         6.82875080570331    5.62895142296097   12.27296090642748
C         6.90605025733982    4.24408507881612   12.30635465902409
H         6.73046716646140    3.66339764503814   11.41214818877304
C         7.20743266145322    3.57070876245966   13.48178331798080
H         7.26340678765914    2.49219647264105   13.47607908363940
C         7.44095676837194    4.26305479506441   14.66159856325091
H         7.67892204008287    3.72649641842714   15.56677019219218
C         7.36717841830917    5.63962356367236   14.66940820692455
H         7.54231712485755    6.20210132878693   15.57525923547716
C         6.01731694465406   12.87744379794240   10.32935684953766
C         4.76146676750694   13.68360433626118   10.68867619061614
H         4.53738486992335   14.39474226437924    9.89743862692013
H         4.89556991958978   14.23802640953448   11.61263298624795
H         3.90676825177121   13.02085384861412   10.80887439978222
C         7.21859387757976   13.82100649505677   10.17793504798081
H         7.03998959168789   14.52228642287392    9.36659319554518
H         8.11897817418330   13.25370919594322    9.95206700115277
H         7.39420961004425   14.39285759149810   11.08384800809160
C         5.77937661536925   12.18955916763606    8.98144587523136
H         5.58959361577898   12.94583065461797    8.22303065634227
H         4.91343426085637   11.53156907762396    9.02581211134567
H         6.65513978843334   11.61868201584729    8.67915466181919
C         3.43792505943937    6.99694637800248   11.95096888713453
C         2.25735119141704    7.12577175625769   12.73944876031225
H         2.28475321195295    8.06419899714784   13.29274959841312
H         2.19870027097403    6.29630983402135   13.44441582451824
H         1.37655111937335    7.11252557692691   12.09743922485726
C         5.99474426127006    8.46499811888110    7.99928995659544
C         5.98165414237384    8.96934458069153    6.66611120323021
H         5.41050882532617    8.29935203531517    6.02336964190734
H         7.00467136488870    9.03658382516069    6.29506612175743
H         5.52761551261866    9.96037400835720    6.64669083255705
N         6.35815101666450    5.29209194140678    9.33874557713118
N         6.64828777608504    8.27684345987411   12.21860999591097
N         4.37888685050953    6.87463014289242   11.30337413117772
N         6.00340975533160    8.07997488517523    9.08163677086789
S         7.61171502848471    3.75490383681106    7.68595457320369
S         7.19576220727103    8.86407748210216   14.67255405691764
Ir        6.37242140533432    6.85371645219326   10.71985180321247

