36
CSD_code = FOMVEJ | q = 1 | S = 0 | Stoichiometry = C9H20Cl2CoN4(1+) | MND = 6
Co        2.63564593288009    8.09235841250007    5.44952896419654
Cl        2.90384273606003    9.67944378846303    6.92533436896708
N         4.52402372011302    8.09238823851924    5.12049552875713
N         2.52260193483430    9.50409804361862    4.01968735957837
N         0.87056854474568    8.09220464892866    5.85562610989070
C         4.91409194426297    9.34283779811177    4.44454914633422
H         5.89314170790767    9.24333212132961    3.96589433514876
H         4.97159468600170   10.12242770928874    5.20695737763050
C         3.84884457035948    9.73261467108160    3.42145705813823
H         3.97416140911129   10.78124873560413    3.13332007043502
H         3.94696560123860    9.12883060741570    2.52094437818717
C         1.44314280435612    9.38146442756013    3.03144864039887
H         1.47439498923745   10.23234724924855    2.34010327446334
H         0.49454583221770    9.41820884040483    3.57107453068350
C         1.50007178125007    8.09242226034861    2.20783564899210
H         2.37766179737797    8.09240315075001    1.56211417450092
H         0.63413509328832    8.09242700623623    1.54489996719661
C        -0.08394293923323    8.09228426659383    6.49765114087901
C        -1.27099576878085    8.09241852330203    7.27240565437661
H        -1.28553066373445    8.98037044352032    7.90594336927053
H        -2.15032154822172    8.09230942676607    6.62846329493027
H         4.98362716412917    8.09237808234167    6.03316072260806
H         2.32007426595981   10.31370555427300    4.61112825964282
Cl        2.90268784508768    6.50600611053258    6.92635001881396
N         2.52265087536280    6.68073309679778    4.01954678079192
C         4.91416241135476    6.84199163720287    4.44449921266304
H         5.89323803356172    6.94151644341543    3.96589946223660
H         4.97161376178144    6.06233581831782    5.20683539239842
C         3.84892252811117    6.45225496431058    3.42138042995679
H         3.97419876316975    5.40364690483588    3.13313660445298
H         3.94707501324346    7.05608962063602    2.52091596178952
C         1.44313123793952    6.80336130521057    3.03139447672855
H         1.47439216807462    5.95248394023928    2.34003872463280
H         0.49454926315298    6.76659001948977    3.57105210974552
H        -1.28535101066984    7.20447322136363    7.90594978151124
H         2.32018351446915    5.87109291144130    4.61097766907187

