123
CSD_code = FOMZAI | q = 0 | S = 0 | Stoichiometry = C52H66N2O2Ti | MND = 4
Ti        7.69390678135413    3.98463996262598   23.36141373886760
O         8.80958731646014    3.19939719904508   22.21800450964018
O         6.54205246731392    2.87371911944533   23.93488111245455
N         8.49204097009410    5.07404266000204   24.66904987674915
N         7.02036361691632    5.52627568325400   22.56440993303680
C         8.71980546552272    2.15814771208126   21.39146578997914
C         9.27369964557040    0.90701135921459   21.74069923930313
C         9.14174574204549   -0.17028908674702   20.88031957961772
C         8.50434192361675   -0.04018999511892   19.66205256639142
C         8.00821053017555    1.19480256289112   19.28797655832238
C         8.10492795330296    2.29411070930813   20.12467149782188
C         5.42483917407675    2.29700325969754   24.37643987667104
C         4.82271168999952    2.74833949906723   25.56893286115924
C         3.66884932288350    2.12675245039550   26.01814930893924
C         3.09355737477292    1.08747512291528   25.31096528129967
C         3.67589763297252    0.65707351352213   24.13394068296693
C         4.83534379935083    1.24207080088537   23.65118466821659
C         8.79785286031013    5.14297955772405   26.02433582013302
C         8.55125347443612    6.30051488633735   26.78998062974287
C         8.89459700884952    6.32263787955350   28.13432735371192
C         9.45214479616434    5.22251577016949   28.75597794012641
C         9.64002330965974    4.06325915444040   28.02369150628426
C         9.31590119377465    4.00878263820218   26.68009689829545
C         7.87882223653576    7.51104358047272   26.20797284956322
C         9.52628801400432    2.74597087766812   25.90379451283925
C         9.99098487196805    0.75052140111781   23.05954386245849
C         9.10258172961607   -0.01184798937846   24.04624870345576
C        11.34067365522197    0.04661863074136   22.91094443588510
C         7.63319591859307    3.66139869150109   19.68574979372435
C         8.81439681080619    4.39304028131737   19.03514941495062
C         6.44878260530441    3.61751243443095   18.72027206913213
C         8.96223257334101    6.02569447453705   23.76844753311464
C        10.36027772013062    6.55717614634933   24.01873969010965
C        11.32856042770410    5.40621367458661   23.92453374953024
C        11.41587852906143    4.67223658468295   22.74495762675292
C        12.27767765854230    3.59535438800961   22.64815595789025
C        13.06091932332338    3.23205810131867   23.73229129865594
C        12.97622776576783    3.95283774436450   24.91089635697223
C        12.11476114786550    5.03347817522943   25.00668172985145
C         5.45389659788060    3.88122526920164   26.34639175400952
C         4.44182361855886    4.97610197232612   26.69082506678444
C         6.10431469057917    3.33906557878548   27.62220284153705
C         5.46710210510667    0.76617531720139   22.36307608538572
C         5.82081599767247   -0.72086502017945   22.43413208393501
C         4.54226321012268    1.02083984820495   21.17040955507032
C         8.19425966601704    6.27648617739452   22.65752077764815
C         8.65879105321009    7.16537367762423   21.51507609236404
C         8.31225399309844    8.62930615570684   21.63467572801433
C         8.29580649184907    9.27380616513546   22.86444130317409
C         7.99143984964807   10.62064210305692   22.95472468542535
C         7.70597993760421   11.34884850223262   21.81294547810587
C         7.73101630710197   10.72030694669310   20.57962831649169
C         8.03182848452781    9.37287319339521   20.49270525712257
C         5.71095221740934    6.08402100447817   22.26558016638289
C         5.58939797285400    6.77834385370780   20.89484868132824
C         5.31722978896890    7.09906591748162   23.35530120285724
C         4.72251066014942    4.90787862487922   22.29766969586996
H         9.54913883919937   -1.12880058753531   21.16545892940059
H         8.40876963921905   -0.88882956999912   19.00069820428532
H         7.54044810979626    1.29786298544566   18.32106137193987
H         3.21012814035668    2.46043182698935   26.93689547536620
H         2.19343088358402    0.61576144463455   25.67602658710073
H         3.22166262932110   -0.15164571010796   23.58137133590484
H         8.70664328209208    7.22365443723373   28.70221073188206
H         9.71864805892007    5.26041576933122   29.80139985184048
H        10.05019791767391    3.18525155145729   28.50264024360045
H         8.59487710557055    8.31889629873577   26.04848498797341
H         7.12145524335996    7.88119886604468   26.89837366504982
H         7.40282223370375    7.26779210224314   25.26238503939049
H        10.43332721261690    2.83199045824566   25.30062159294362
H         8.67298691227952    2.57020268252694   25.23550587924152
H         9.64199734801155    1.89880961988601   26.57716418565660
H        10.17596660160407    1.76073452545492   23.44317010688956
H         8.88698336246723   -1.00652638315538   23.66041716373911
H         8.15864204748878    0.51413901360722   24.19307496687110
H         9.60046818182525   -0.11774991332810   25.00803359920930
H        11.89565850573486    0.11152287627731   23.84490432615913
H        11.93091093895379    0.51103651150316   22.12499290049387
H        11.21183292686175   -1.00526833120098   22.66757221988978
H         7.33728703002630    4.21277100176510   20.59515528727221
H         8.51606436573105    5.37980405444911   18.68383895233951
H         9.18301150509470    3.82359744052955   18.18307148806644
H         9.62662595168051    4.50443250252568   19.75088078625117
H         6.74932064043048    3.22563604215396   17.75105400926787
H         6.05634423016907    4.61984360904126   18.55688155770979
H         5.64874078009916    2.99610901727660   19.11527752711527
H        10.41876681159066    6.99332798977297   25.01912720895281
H        10.62119812159550    7.33182581090452   23.29548513779137
H        10.80549808696803    4.95198286694480   21.89581773638092
H        12.33738239229848    3.03883329630635   21.72406502130922
H        13.73318684538339    2.39002894547206   23.65775115853348
H        13.58065097416769    3.67303217428774   25.76166104539258
H        12.04829822912195    5.58604537764120   25.93363129577489
H         6.24165379734741    4.32832007203830   25.71543384500299
H         3.71648732152906    4.62276367800794   27.41985402515869
H         3.90314689085587    5.29886638690999   25.80209596203271
H         4.95901115972655    5.83305092422326   27.11734026574693
H         5.34994174743983    2.90777303837791   28.27756671456131
H         6.61705529551610    4.13672916374647   28.15484536292999
H         6.83028155786672    2.56675739501184   27.37861543045528
H         6.39358158167402    1.33879061664583   22.20810313388016
H         6.42478127583550   -0.99792617445716   21.57293502755899
H         4.92010247474996   -1.33105163185246   22.43726380359912
H         6.38348847999207   -0.93982091276756   23.33799372632734
H         5.05044790901723    0.74776343861422   20.24764868436872
H         4.25703076917460    2.06952173813110   21.12079668586689
H         3.63470418386975    0.42659355596723   21.25429711240113
H         8.24477601946041    6.77742963139356   20.58363903431848
H         9.74833345714254    7.09279557745210   21.42677622884573
H         8.52145776583884    8.71053798420766   23.75544734920305
H         7.97843490696008   11.10324708636809   23.92136338789689
H         7.46734274696219   12.39973985649915   21.88251479869561
H         7.51452283766027   11.28068058578948   19.68163091626096
H         8.05001577116567    8.89180688280622   19.52404315984786
H         4.53931295896898    6.96829393549970   20.68218579582868
H         5.98792532964575    6.14737679547002   20.10585767998144
H         6.10631465491402    7.73247521192883   20.89129346532042
H         5.98155995748221    7.96079909784329   23.32341892029489
H         5.38679727353422    6.62924433580433   24.33572117270438
H         4.29720078637989    7.44370245190246   23.19983405864455
H         3.72537469620487    5.23675769283892   22.01042263055567
H         5.05339467634337    4.13221041939252   21.60417909311578
H         4.67125195205539    4.48604565207114   23.30241936001324

