83
CSD_code = FOMZEN | q = 0 | S = 0 | Stoichiometry = C43H35BFeNOP | MND = 8
Fe        3.93668860108463    1.62288291940322    4.10995074319888
P         5.19916487279279    2.93808194981688    2.93602473389155
O         5.65115675188452   -0.65905415346907    3.71161118910636
N         5.51271680465578    2.43788435801079    6.51927500381060
C         2.06125016184224    2.33501086126036    5.03371588313494
H         1.93998726872430    2.99186703101804    5.87930107267614
C         2.07492838375634    2.71786113856132    3.68024295645606
H         1.94667686394883    3.71957153219420    3.30197678049499
C         2.12450951149630    1.53556693081696    2.88691448740863
H         2.02588166772252    1.49717364585600    1.81478004466076
C         2.12997378507538    0.43113332070307    3.76054045524386
H         2.07953327812089   -0.60539191658495    3.47018226900861
C         2.12349706304022    0.91909715967804    5.09184636210280
H         2.02882497307868    0.32149213402721    5.98361826006667
C         4.99976438772862    0.26945048800140    3.86829375457118
C         4.92818663227362    2.09325484444806    5.58569253950727
C         4.58331938412148    3.00441152160593    1.22279984883458
C         4.68503762537190    1.82850065403659    0.48057454870247
H         5.17957445914146    0.97274245698040    0.92242743072230
C         4.16236228449984    1.76374162574395   -0.79570361748038
H         4.25081834745552    0.85431523099649   -1.37130472668849
C         3.51638676804125    2.86732716817221   -1.33454568230250
H         3.10390690905103    2.81712922338379   -2.33106579435359
C         3.39388042999463    4.02997974583650   -0.59279460972064
H         2.88341431558390    4.88552677141793   -1.00997705699320
C         3.92053630135486    4.10096612770853    0.68625239410169
H         3.82220303082801    5.00891157170552    1.26513937188177
C         5.27833485080806    4.69042987034755    3.43629404169756
C         6.03306382062275    5.60085124352245    2.70047064723399
H         6.60100852618860    5.26321468274621    1.84484900538806
C         6.05456175516415    6.93287821759523    3.06735916402456
H         6.63921001332437    7.63741818552123    2.49409416604942
C         5.33365731513225    7.36412375368775    4.16989824565533
H         5.35556006533383    8.40510310265095    4.45417394640438
C         4.59575781181127    6.45919565458789    4.91296767967009
H         4.05055064738174    6.78962445098722    5.78358732375348
C         4.56863516685794    5.12542173411228    4.54912483240963
H         4.00801849463268    4.41210812816941    5.13469330591971
C         6.96080309078368    2.53024192541104    2.69947873395780
C         7.63187917289431    2.79734739593990    1.50815955239155
H         7.09822803192394    3.20826232921927    0.66155208570859
C         8.98223733516746    2.51777842143007    1.39825497567023
H         9.49622197232251    2.72440127780981    0.47071892739691
C         9.67382347272661    1.97624583205226    2.46995211564634
H        10.72851916339382    1.76434916948977    2.37859104906653
C         9.01005599096921    1.70119034594524    3.65425381794300
H         9.53603482103259    1.27648877566941    4.49593205000426
C         7.65861311925887    1.97317243522090    3.76775733197319
H         7.14227160961894    1.74765699168632    4.68911324216951
C         6.76148630654988    4.42873995696592    7.27303774893678
C         7.50793387974305    4.76355605967967    6.14449258570165
H         7.85356924584513    3.97777662931422    5.48474012290450
C         7.83907148614220    6.07393844000181    5.85360920353442
H         8.43386736516671    6.29896087070161    4.97768167249921
C         7.41380871015049    7.09664017089691    6.68418342780420
H         7.67745075071340    8.12268398378698    6.46579694738631
C         6.65154467085675    6.79162909860282    7.79793008121204
H         6.31124396076159    7.58414525189408    8.45158364255677
C         6.33188151932324    5.47487629448658    8.08314603350148
H         5.74477389027256    5.25184176458415    8.96358183082364
C         5.72240194711978    2.64859080573277    9.03707502851337
C         6.45027608351335    2.82336069886089   10.21241903336375
H         7.49269002872408    3.10171577360239   10.14403915126694
C         5.87393287668671    2.64967173725860   11.45712650223494
H         6.46426186827303    2.79407511751878   12.35224847964537
C         4.54077883568991    2.28924469395668   11.56166318151118
H         4.08569568264594    2.15141229564381   12.53298939161434
C         3.79767789092015    2.10559851975304   10.40937021481813
H         2.75503995858724    1.82207721526501   10.47936143895986
C         4.38502709038410    2.28463061609624    9.16865962354052
H         3.78538176531505    2.13467129541158    8.27851398888644
C         7.75262885689466    1.93246580702358    7.46845197128598
C         7.66476619287332    0.60034319153406    7.07021518310421
H         6.69370957583068    0.17654813841918    6.84362705183240
C         8.78759227912020   -0.20004790455764    6.95272075926124
H         8.68686164559114   -1.22891553627744    6.63326646083823
C        10.03935636332874    0.31487101234942    7.24367729204739
H        10.92039875523155   -0.30607134905951    7.15266087733402
C        10.15037015842444    1.63187876068788    7.65611268814038
H        11.12331295961505    2.04269371464360    7.89166024991640
C         9.02136162894269    2.42485489323291    7.76285930241010
H         9.12748676968840    3.45465609761640    8.07554788422967
B         6.43533189061610    2.87094761923350    7.60620606608239

