85
CSD_code = FONGOH | q = 0 | S = 0 | Stoichiometry = C40H38Cl2N2P2Ti | MND = 6
Cl        3.08189907727317    6.09117379371696   13.37410702129355
Cl        1.88905794682737    8.22135658134829   11.26453379588377
Ti        3.35499341839660    8.21584851169508   12.87566150490025
N         5.07380913116327    8.69978492227912   12.33703735414935
C         5.82635980509272    8.61769236617379   11.08634667912759
H         6.80827849902337    9.09807026604408   11.23419191336507
C         5.08552199281900    9.36109055488297    9.96798628212598
H         4.07151920788933    8.96937030283750    9.86126485946591
H         5.61444493640536    9.22320066677432    9.02676548090799
H         5.03665465994639   10.42444057004962   10.19166848994595
C         6.06165883765579    7.18057878934264   10.66434058945863
C         7.33003698525344    6.74846260378656   10.30013703768496
H         8.15592635690531    7.44557710503513   10.30971611986896
C         7.54599792677102    5.43140584002481    9.93629372896266
H         8.53961225675717    5.10724545212199    9.66393611179762
C         6.49463350940422    4.53172969814573    9.92761077041378
H         6.66558948811937    3.50085544165099    9.65521755181016
C         5.22060951161064    4.96157541957304   10.25854550364200
H         4.39123320299020    4.27022100893211   10.23783037830964
C         5.00351223933647    6.28062636915987   10.61513356837054
H         3.99511324330865    6.61557424435148   10.84800935215446
P         5.84405848880720    8.59093684361877   13.82710034780283
C         7.14290965654937    7.31535387693846   13.53423821060643
C         8.47230049958555    7.57225466313572   13.22384052065895
H         8.83081273111322    8.59036955727669   13.16169433803798
C         9.34279096058780    6.52130181564264   12.99137403047461
H        10.37615778653133    6.72704320963303   12.75052966952368
C         8.89514623732879    5.21313351510962   13.05856725510458
H         9.57881176430661    4.39836588971960   12.87067044115312
C         7.57099921389621    4.95088254870950   13.37057381460641
H         7.21837138178393    3.93176382795691   13.42679897099352
C         6.70216039797104    5.99686976329171   13.61587981912611
H         5.66674957472199    5.80206776820117   13.87318606936203
C         6.86344325666686   10.11414007882427   13.92073063993270
C         7.83461271855238   10.22218510422006   14.91251945521477
H         8.04906975108449    9.36583088318893   15.53780085100746
C         8.51291561271420   11.41230248267958   15.09426096560217
H         9.27103508725792   11.48933529839276   15.86030463015769
C         8.21363227553932   12.51069272366320   14.30251185413055
H         8.74299588538768   13.44111270062066   14.44813371059851
C         7.22462974920495   12.41887619012596   13.33703934050687
H         6.97359872691373   13.27844357086831   12.73237877478196
C         6.54524547243384   11.22817371524257   13.15344884774095
H         5.74627629199858   11.15684077001374   12.42627483304935
N         2.79019639152773    9.49086933336246   14.11183042319894
C         2.01616794804709   10.72712366282733   14.13170053952064
H         1.91251741419061   11.06062043090717   15.17723990075605
C         0.60388716825428   10.53443507794616   13.55672453997565
H         0.65200068449716   10.14110420441000   12.54145904560883
H         0.08470107612786   11.49081023797800   13.53664125875975
H         0.03881948923504    9.83995013146693   14.17630555879872
C         2.74677204142126   11.80247689703375   13.35698826768749
C         3.12538638685320   12.98850681765823   13.97493541248972
H         2.90411541451131   13.13980005489121   15.02232175075173
C         3.78015935551921   13.97783693343305   13.26270347358839
H         4.07051595583531   14.89303452987575   13.75745802149330
C         4.05257528024942   13.79867655484879   11.91766791569849
H         4.54980956693812   14.57564709610891   11.35554588586974
C         3.67793446846509   12.62038275379465   11.29356358763574
H         3.87472914456811   12.48664018820327   10.23900620766392
C         3.03852520010046   11.62096696798208   12.00895349231097
H         2.74732866184537   10.69952997554648   11.51361753627822
P         3.07174667390998    8.58460537799729   15.49368147808341
C         1.37168071363366    8.53958970055298   16.21288364527099
C         0.50650312716379    7.63937111699239   15.59265269917654
H         0.88203937115206    7.01397309223541   14.78627404327790
C        -0.81327528288534    7.54486017012121   15.99260336359018
H        -1.47692726634785    6.84336642839822   15.50815695005468
C        -1.28251260163220    8.35265921467330   17.01714953860197
H        -2.31301283062985    8.28186287217723   17.33277565039090
C        -0.42913535076381    9.25142756797712   17.63400983303844
H        -0.79556783307870    9.88495334659978   18.42910291942918
C         0.89423915763994    9.34791911296502   17.23672872249989
H         1.55197536239167   10.05266662725790   17.72629372713075
C         3.93369326252839    9.72401002512400   16.64197122540223
C         4.63114644075210   10.82561836700136   16.16314657390668
H         4.58665792688666   11.06473290800609   15.10872919293267
C         5.37713317983645   11.60840201538370   17.02603831010009
H         5.91061733815745   12.46647942094406   16.64301167060814
C         5.44728019636703   11.28408058634886   18.37048402677459
H         6.02979604584608   11.89424726331642   19.04519793120695
C         4.77964136770491   10.16695348620262   18.84928774994166
H         4.84699138101923    9.90480308718975   19.89547287389084
C         4.03475115012259    9.38335506839422   17.98836159547039
H         3.52381106834744    8.50129399075329   18.35143197744009

