47
CSD_code = FONGEV | q = 0 | S = 0 | Stoichiometry = C24H16Cl2FeN4 | MND = 6
Fe       -0.68117622922825    4.74992698607377    9.53199509429269
Cl        0.79890256895562    3.21614810250405    9.95496940956305
Cl       -2.27105664549805    3.30200693786813    9.22195196367147
N        -1.24679436763274    4.81803466397629   11.36164517531425
N        -1.95372589516325    6.09644090016939    9.24435664011330
N         0.68896883363071    6.01644686965099    9.72030176473270
N        -0.11610547692054    4.63576426368160    7.70443388462045
C        -0.86354707686352    4.11672958438908   12.41586965755723
H        -0.01097827307329    3.47064321907603   12.26447062636097
C        -1.51845314483124    4.18723140485841   13.64548128816630
H        -1.15872903081969    3.58327759889288   14.46339106915300
C        -2.61179503319768    5.01106826735679   13.80370212489819
H        -3.13476907325156    5.07725796718871   14.74598064731494
C        -3.04792530328359    5.76405550157834   12.70247395702801
C        -4.16055055211410    6.65261311131788   12.71031812330088
H        -4.71783883475407    6.75996799126972   13.62940815121713
C        -4.51795321676633    7.34881568736087   11.60070051833553
H        -5.36310112441127    8.02111739789299   11.62251664476146
C        -3.80249682645251    7.21537456677453   10.37613380462376
C        -4.11184460550258    7.89698395261041    9.18974228326888
H        -4.94766234218613    8.57866820794408    9.15508593261464
C        -3.32772146410248    7.66486354755332    8.07775376838881
H        -3.53252824209417    8.16633905305405    7.14479948607181
C        -2.27067461697748    6.76379109841746    8.14278251514162
H        -1.66613466873400    6.56409679323188    7.27109109900190
C        -2.70691650857299    6.33091426815514   10.34178897057545
C        -2.32618790477977    5.61861397448374   11.50113607322281
C         1.05552471212272    6.74312576829015   10.76756784405469
H         0.43635709566195    6.66114207532608   11.64798729058047
C         2.17934196075882    7.56200315394731   10.76842563846726
H         2.42141429987868    8.11915786879683   11.65994380705659
C         2.98050997454100    7.64283475944774    9.64734285579308
H         3.86699712215874    8.25801720041043    9.63391897899809
C         2.62000191018379    6.89524879707297    8.51643250373112
C         3.34472797381044    6.87508783710232    7.29022061756097
H         4.24050352512482    7.47479554207331    7.22168805106526
C         2.93418833582066    6.12402181950266    6.23617065679727
H         3.49899957261025    6.11431356384054    5.31544920561219
C         1.75460836770817    5.32947595390945    6.30581946874775
C         1.26025065719510    4.53018869508959    5.26338937620770
H         1.78721327433579    4.48113865008743    4.32228236145984
C         0.10442547204238    3.81091523261136    5.47760983592060
H        -0.30220718161955    3.17600749137103    4.70644943122042
C        -0.55417441518538    3.88804298038664    6.70486716675473
H        -1.45532083640859    3.32508413784248    6.90047008611981
C         1.02332215322494    5.33542053430675    7.51015757077845
C         1.45861108065596    6.10428602125714    8.61282657976700

