55
CSD_code = FONKOJ | q = 0 | S = 0 | Stoichiometry = C28H16CdN10 | MND = 6
Cd        7.45539850218211   11.41274319252135    0.03352173743609
N         6.53214902375703    9.32985157571275   -0.62081579552382
N         8.65560598093965    9.68865623575225    1.04300834527116
N         5.48918936943422   11.49901802226542    1.40095567317604
C         5.52729324215275    9.18228853994631   -1.45451802675403
H         4.83745683508089   10.01527681960133   -1.51957391234109
C         3.72875470544909   12.44008569927653    3.34354012704679
H         3.06145717940778   12.82326762854514    4.10033529934104
N         9.92080450694085    9.38327963933078   -2.46673710106106
C         9.50419484814784    7.49031012951426    0.51212497069363
C         9.28712395214252   10.34325777505795   -1.99072707213618
N         8.59298837595219   11.25317339903496   -1.72009922236412
C         7.42333277868245    8.33370278831450   -0.49616061488755
C         4.79961164063028   12.63376079076486    1.19384168746136
C         9.70306972231688    9.88948782708877    1.81214676275505
H         9.75091929912593   10.85454619499925    2.30338229435006
C         6.23121241998183    6.99799545974468   -2.10731390917102
H         6.12199609933503    6.09289563543642   -2.68725204206964
N         5.92459341879281   12.88011428809829   -0.90403345975079
C         5.03367951160065   13.36526261255240   -0.02408080582701
C        10.61142625969175    7.73058461575740    1.34262350727635
H        11.37610601811991    6.97461235632400    1.43606771525215
C        10.71096363699832    8.93577517668161    1.99357923547550
H        11.55496189787418    9.16011854974460    2.62651232453963
C         3.41708794647809   15.05388387865348    0.73164748988873
H         2.91147523818823   15.98853657157408    0.53980697572175
C         5.54822122633627   14.77159724022671   -2.30666659580767
H         5.79479585501242   15.29135296225003   -3.21912624022236
N         5.28682874741471   15.21655201240880    3.96522211659956
N         8.18747097813661   12.89105778129073    1.31632663717324
C         6.17651983068213   13.55959975170204   -2.00151942537314
H         6.91208358371459   13.12569665135985   -2.66858867512839
C         8.29800460465190    6.10769379529756   -1.06007534735003
H         8.19167605805216    5.20081405064981   -1.63660254607160
C         8.54378519442533    8.51940125897576    0.38863124925420
C         7.31551567796113    7.12579631202479   -1.22436323082161
C         7.58856952650916   13.74453222934413    1.85886450024771
C         4.34294896313248   14.57981588949321   -0.24169841123053
C         5.31945079492382   10.85532509773719    2.53316299760048
H         5.90223431485127    9.94987807499750    2.65554470645316
C         4.45105228723978   11.28861579173187    3.54053845704706
H         4.36605096962849   10.72639169479550    4.45717971492042
C         9.34803353416000    6.28125160619930   -0.22405033136122
H        10.10816950420694    5.52301811793689   -0.11942392957583
C        10.82954373760462    8.58543771166726   -2.04126508186325
N        11.60524757199920    7.79332308050560   -1.71757187951507
C         6.13877540701423   14.95534023790100    3.23032939140224
C         5.33282662497635    8.03129995413222   -2.22344945431339
H         4.49240512315443    7.96706199698577   -2.89674139028525
C         3.88632640279302   13.14902038652993    2.14159966285075
N         7.06621496539397   14.75286814851865    2.36854518013271
C         4.62757879581610   15.28286028145311   -1.42425772112038
H         4.12436334225235   16.21914346933968   -1.61869019602760
C         3.19622350476126   14.36607595878833    1.87606252369974
H         2.51823046404771   14.73819305326808    2.62800113481653

