62
CSD_code = FONKOL | q = 0 | S = 0 | Stoichiometry = C32H24ClN2PPdSe | MND = 4
Pd        2.17760994394939    6.20669179750254    5.98398935403919
Se        2.19930669608846    6.66996603140046    8.26345225931319
Cl        0.04449081516227    5.52772630732353    6.11781743114985
P         3.89712861131159    7.79301076602903    4.68578719206166
N         4.22522449624409    6.79595960410247    5.91426936523942
N         2.36859055030810    5.78787385462754    4.03321909306239
C         3.18577555792735    6.73280138946129    3.46600216594927
C         3.27614354541698    6.58145781880496    2.09308634416695
H         3.85018913266932    7.18510581208466    1.41556671588577
C         2.46356531497086    5.46867128450860    1.79180549852057
C         2.13617979205590    4.79492999949747    0.60853410879229
H         2.54425524403077    5.13024320815285   -0.33454876265189
C         1.29562215115043    3.71410579408426    0.67638730565371
H         1.02973391253309    3.18394273913400   -0.22722090350103
C         0.76551659448686    3.27175947964412    1.90012740813841
H         0.10697406504691    2.41518200789036    1.90280026318271
C         1.06608986369284    3.90085457203546    3.08057745708542
H         0.66211062635238    3.57545849383142    4.02886995112371
C         1.91689141005632    5.00946771075050    3.03150296562472
C         4.80346579559533    7.20232215994530    7.10776745466859
C         6.13627317457374    7.62335875571211    7.16307595273432
H         6.69467922808355    7.69106465369700    6.23997081526421
C         6.72768619894441    7.94173921164798    8.36693932579323
H         7.75840386466642    8.26388737395533    8.38152288993171
C         6.01313773030484    7.85225149349490    9.55367042468711
H         6.48314222182880    8.09998996375250   10.49265367390969
C         4.69029124329666    7.45563582729404    9.52175814567189
H         4.10503623187077    7.39545681709586   10.42869761422863
C         4.09102744253265    7.13262665403320    8.31352543459124
C         2.39103591380307    4.80296552434938    8.77862566578997
C         2.86693235558128    3.86768479603686    7.86336274415914
H         3.14485207488142    4.15954726442036    6.83605653801058
C         2.97880373996887    2.54320746620829    8.25024269395034
H         3.33936420798494    1.81072242775603    7.54338651936425
C         2.62146269923808    2.15404296957468    9.53163232422068
H         2.70639427116230    1.11764398602747    9.82234422659331
C         2.14747470500223    3.08910518318961   10.43567736780457
H         1.86393649572368    2.78577705690946   11.43250565664313
C         2.03007962037246    4.41704900943404   10.06187903362728
H         1.65059474234079    5.15516033068965   10.75521071199955
C         5.30757338918232    8.68118921613741    3.98466305425788
C         6.38440360621467    7.89590925803505    3.58489594665041
H         6.33390544320978    6.82453271759214    3.73556623663786
C         7.48873345960837    8.48837070379493    3.00331617499850
H         8.32720783011114    7.88375263982758    2.69095734692207
C         7.51390183038512    9.86285793990552    2.81763902018130
H         8.37662999844485   10.32745224506447    2.36390169484423
C         6.43529783394507   10.64178201296492    3.20386813754451
H         6.45732113826872   11.71018494491878    3.04785888862039
C         5.32515462256077   10.05407061420671    3.78593186173456
H         4.47384781344173   10.65286960859504    4.07768576785322
C         2.69005231792577    8.99593441999315    5.36700949469876
C         3.11040565703341    9.84077462863271    6.38988148250364
H         4.16981372544295    9.96732911499634    6.58135565245653
C         2.17196161079963   10.50449886406501    7.16510809307291
H         2.50087692993072   11.15963912875456    7.95824895722315
C         0.82081882329884   10.30336044031711    6.93950128883209
H         0.09282128557723   10.79997339065561    7.56312528074323
C         0.39541350014840    9.46338832870998    5.91743459938906
H        -0.65921024973846    9.31144360189803    5.74291958693949
C         1.32268927435201    8.80347435435929    5.12787910643152
H         0.99120787863487    8.16606423048991    4.30542190098830

