57
CSD_code = FONLUS | q = 0 | S = 0 | Stoichiometry = C24H29Cl2PRu | MND = 9
Ru        7.02279029963239   14.13474964617227   15.04892709266287
Cl        4.82377318893897   14.89931090406316   15.38399398289636
Cl        7.50120869995786   14.68835842343284   17.28976567418487
P         7.86674618236431   16.22550375105811   14.67806543124885
C         8.05115226507122   16.55500911918026   12.89623028978510
C         6.94451606489981   16.94422048834393   12.13019880904426
C         7.10311785373184   17.08894126780506   10.75717377201332
H         6.25286499150716   17.39055894360323   10.16198581990213
C         8.31853296491552   16.85041388668321   10.14125435041229
H         8.41525496106122   16.96455982870959    9.07159313914846
C         9.40912785076884   16.46385507131770   10.90124540716622
H        10.36323969471661   16.27617708415562   10.43062892000100
C         9.27127819814302   16.31562123361685   12.26898282565068
H        10.12778482210435   16.01512061861567   12.85396000727089
C         5.62219045901890   17.22484091518873   12.76209441682176
H         5.58632175107438   18.25694819342312   13.11165378799626
H         5.45306291814967   16.57581394214583   13.62372216209726
H         4.81602683476413   17.08411868415028   12.04579878268737
C         7.19142300293981   17.77369845990971   15.35476073665230
C         7.64986014577095   18.98347620498511   14.83850011576244
H         8.34930331450640   18.98514524882084   14.01220048850007
C         7.19801362653747   20.17571843223940   15.37087850318678
H         7.55117853386174   21.11380553212658   14.96711738461145
C         6.29181229884906   20.16694058295413   16.42024312417724
H         5.93959779597177   21.10091757791763   16.83320343535498
C         5.83779306837785   18.96471093626416   16.93492558789671
H         5.13090094202947   18.95782499179257   17.75069563264027
C         6.28463185978204   17.76591267731802   16.40559216492455
H         5.92817761231102   16.82440268210973   16.79738269246212
C         9.56526878836006   16.35835347061030   15.35353567600861
H        10.16698565735174   15.49473566400810   15.07606124996472
H         9.45851613352899   16.37159796162204   16.43888173201958
H        10.03527626457707   17.28092075014654   15.01442341742721
C         6.24602522474749   11.98214534480089   14.75864282415712
H         5.33232179792678   11.50063011633883   15.09205606701425
C         7.38490850168715   11.93627091241362   15.55821060594812
H         7.35869851739822   11.42584205727301   16.51541642590722
C         8.60980100892251   12.51455520652866   15.11827842093545
C         8.63881199521735   13.11472597872833   13.84772197298355
H         9.57925379544064   13.47649888937601   13.44378256870938
C         7.48125657660769   13.14982156504748   13.02589461555516
H         7.56167875404385   13.55504947936580   12.02382916069460
C         6.27040458665424   12.60156986571168   13.47354593180853
C         5.06438915716670   12.50089365310155   12.57033048374336
H         4.21471558053626   12.16309107230904   13.17419494354689
C         4.68827165233321   13.84542660558992   11.95101638240183
H         4.48049369157691   14.55957324335768   12.74402782447675
H         3.79541319365977   13.73283515450264   11.34074199408938
H         5.48737849525855   14.23470942431040   11.32379060061565
C         5.34107730242721   11.44795970651328   11.49087896812184
H         6.16200007314730   11.76211067345919   10.84917735611663
H         4.45634956335929   11.30942956712165   10.87442888077716
H         5.60101173228191   10.49108694262329   11.94063267312782
C         9.82794858236553   12.42591022674806   15.98593919913910
H        10.71194619726132   12.78810377972954   15.46475966822104
H         9.99880891257919   11.39611884391259   16.29837026484877
H         9.67700606182366   13.02925851665345   16.88415555447190

