69
CSD_code = FONLIF | q = 0 | S = 0 | Stoichiometry = C33H30IN3OPt | MND = 6
C        12.94348173605529   17.71172776394926   18.29423127299371
H        13.89584747770864   18.13581615480701   18.00632102226281
C        12.89635574740553   16.56805666657558   19.07060581610035
H        13.80930716207116   16.10221164674459   19.40405343944535
C        11.65656962119824   16.03351088588957   19.38581626521131
H        11.57552194892859   15.13110761368106   19.97272389376023
C        10.52288223118645   16.66962094527867   18.91685012780462
H         9.54362808123074   16.26134414886582   19.11035812410489
C        10.65913577606135   17.82776951071422   18.15234394140975
C         9.47963715438579   18.50409905585316   17.58839784115848
C         8.54759354343162   19.59452663489668   15.79921216375906
C         7.31544435479444   19.66713860282179   16.43948257928660
H         6.49179709052341   20.11967050590538   15.91174483014638
C         7.16330577043602   19.14569827970553   17.72025777578147
C         8.27518533409058   18.51563119811619   18.27837233651113
H         8.22042148494207   18.09186454098211   19.26882808034639
C         8.63466704816713   20.05565542418062   14.40326637935575
C         9.36765060743819   19.34230161209607   13.45832407179596
H         9.89076032946242   18.44263111938752   13.73483029586842
C         9.39441168220253   19.81062463698601   12.15558242495046
H         9.96462726501641   19.28631579795113   11.40325029868287
C         8.68336079539545   20.95771431649911   11.84256127938915
H         8.68613331067808   21.36319923272665   10.84290179248206
C         7.95087096913899   21.57074038718264   12.85004513525284
H         7.36108477530123   22.45732755691015   12.65469333648206
C         5.88955180148386   19.23417829125442   18.43667314232006
C         5.44712167020177   18.18457037808869   19.24292918610234
H         6.04023829482559   17.28515177401256   19.32576830486421
C         4.24161677768295   18.26418230198817   19.90496280788429
H         3.89918616465771   17.44304126645785   20.51752001212723
C         3.44695788554496   19.40796814582886   19.78654165196782
C         3.89115676534451   20.46504491923563   18.98671103794046
H         3.28231993608608   21.35257671717539   18.89762118410060
C         5.09193233570841   20.37361488848794   18.31795194982831
H         5.43297224766643   21.20119310570270   17.71356237493356
C         2.21289544056848   19.49047288868980   20.45947605542681
C         1.14891367948726   19.55640604663995   21.02923489949461
C        -0.09244550246324   19.63052249760602   21.69064321734199
C        -0.53226423273122   18.57749499260469   22.49150970969914
H         0.08974688944907   17.70156055162551   22.60489772090086
C        -1.75090385712733   18.64111194252244   23.13903621373989
H        -2.06182469286955   17.80890733434797   23.75107776417994
C        -2.55784567699267   19.76687321221513   22.99636438050047
C        -2.11853448183224   20.82540460099848   22.19496092222028
H        -2.75684555835683   21.68930491115367   22.09683025771080
C        -0.90578688850058   20.76052569386124   21.55148358813753
H        -0.57286212923402   21.58097633050535   20.93335127756633
C        -4.27843601742500   18.90832235489485   24.39976703996847
H        -4.41471924725434   17.97843152164025   23.83814590123921
H        -5.24703312044197   19.26101634035119   24.75031654755495
H        -3.62898854697528   18.72186652518448   25.26123605364429
C        11.50242063487698   21.41159351554679   14.87051317491126
H        12.18381164130567   22.25610292566638   14.97832887894473
H        10.48221422199833   21.79731723067810   14.93077927025649
H        11.65703973013248   20.97696014643414   13.88036461685522
C        13.65476829338667   20.71417184368114   16.52514306685212
H        14.18131884337263   20.70352220355122   15.56962174394516
H        14.18654570264010   20.06310353112889   17.22398513824616
H        13.67325157550270   21.72875608126038   16.92139560109742
C        11.08880636050660   21.32398755871082   17.68962499674205
H        11.40858370218248   20.99507910068017   18.68218717958358
H         9.99713104321309   21.36618355961921   17.67979650268914
H        11.45423743383933   22.33735883689052   17.53711524474430
N        11.85862373321161   18.33014070263199   17.85090684592135
N         9.63085837317415   19.07674148233507   16.38545384176491
N         7.91698023375807   21.13432638419322   14.09369270148287
O        -3.77207296182547   19.93596501058853   23.58318563859699
I        12.68528940597190   18.01155526345050   14.62310494655494
Pt       11.75709079899924   19.94711085113961   16.29817288508328

