133
CSD_code = FONRAC | q = 0 | S = 0 | Stoichiometry = C44H79N4OSi4Y | MND = 5
C         3.47592068192857    1.25617294577810    6.86179952972955
C         4.34482873385589    1.18420997981483    7.98221548247916
H         3.95934146929863    0.80171887018694    8.91416664227909
C         5.63968687377679    1.60313379425225    7.85192303736628
H         6.31441926529644    1.57443050098111    8.69543056349746
C         6.09004989770945    2.04170048237166    6.60685286471033
H         7.11762804448656    2.33219320480691    6.45937117522318
C         5.20478553885858    2.07749246922011    5.54074802223037
C         5.75719884577624    2.43132832505179    4.20801295833343
C         6.15776291766757    3.74199856196892    3.93708974251432
C         6.77799496216049    4.02381734091475    2.72786492989387
H         7.08824786837510    5.03607531530151    2.52032539900125
C         7.03148159216406    3.03294159100410    1.79474909013428
C         6.63964988549030    1.73522864051610    2.08773477059940
H         6.85392176192971    0.96059886335686    1.36854619128127
C         6.00065256856147    1.41159070226223    3.27611981968776
C         5.64440616947329   -0.02573214707444    3.59675575724549
H         4.68968866739455   -0.02943095381415    4.13865236405166
C         5.48278818580164   -0.91075705108474    2.36071955136254
H         5.03911979685364   -1.85906839656567    2.65261832962103
H         6.44549302597438   -1.12057055008980    1.89907215942030
H         4.82841034470309   -0.44849719963079    1.62653204743369
C         6.72798919592337   -0.62710093917008    4.50021270518567
H         6.79566495616396   -0.08888500704301    5.44150799186817
H         7.69607468961554   -0.57901644795026    4.00440394717029
H         6.50033034861547   -1.66857652535040    4.71495655309394
C         7.72787941664514    3.34404162323682    0.49198607835737
H         7.88947895839831    2.40124240168694   -0.04229483674716
C         6.85042166706688    4.24079014203860   -0.38403586689025
H         5.90442201153905    3.74729785323167   -0.59669495248783
H         7.34999642314701    4.45372184317718   -1.32662745197221
H         6.64325548089333    5.18359456713562    0.11641665923823
C         9.09311617733104    3.99036070294405    0.73417570355319
H         9.69712347295139    3.36358640459700    1.38631212941295
H         8.98500651466141    4.96614420586132    1.20045936804781
H         9.62092822282671    4.11984290252508   -0.20822897029058
C         5.96081563825330    4.85318544383242    4.94404568268361
H         5.37855769819895    4.46343387007222    5.78434816163221
C         5.18431120325933    6.02700191619358    4.34735412342332
H         5.01464218017739    6.78296105561245    5.11062345356330
H         4.21743665833514    5.69026878933021    3.98609553166199
H         5.72872605650493    6.48880563566957    3.52688417614158
C         7.31607112284685    5.33199131355007    5.47316353325576
H         7.17261567908641    6.09453974079972    6.23545101159093
H         7.91551255205339    5.75595810363439    4.67078948056579
H         7.87190677747759    4.50741092493144    5.91219604176715
C         0.92468246175486    3.46619049253068    1.97327908068099
H         0.32324414595522    4.09723750707286    2.63233883297071
H         0.32845150762047    2.60914467103981    1.64002325893091
C         1.50345566357605    4.21658284400231    0.77695834675244
H         0.84052408609577    4.18616613230744   -0.08433964041387
H         1.70176270634524    5.25855917173473    1.03180396469468
C         2.81393487476554    3.46928972935951    0.55245123259273
H         2.62958101389901    2.53099013237155    0.02842647634246
H         3.55104864257549    4.05081471329349    0.00439953870011
C         3.24652092737505    3.19456997802194    1.98711941486626
H         3.77018033515083    4.06202304621002    2.40897411961110
H         3.89051825846947    2.31824216539905    2.08408775248011
C         1.72252126116148    0.15637189360203    7.99106053156368
C         1.01833859235941    0.81826495570219    9.00645098785315
C         0.62514822180931    0.09933570474330   10.12645855349632
H         0.10320164661692    0.59763349955098   10.92850924217658
C         0.90557868939530   -1.24902485921106   10.23892207982857
H         0.60928312578018   -1.79122122270900   11.12502960660946
C         1.55205546424073   -1.90689852379577    9.20922831471526
H         1.74510386190295   -2.96436301502082    9.30018722142992
C         1.95779369862505   -1.22688734038604    8.07018229937785
C         2.62015708426934   -1.96135474755378    6.92470527944692
H         2.45944166060295   -1.36554445058858    6.01301754763570
C         4.12712445394102   -2.11201868120021    7.15714041782272
H         4.57276236514391   -2.68445050728834    6.34608311041756
H         4.31237132281753   -2.63696495278574    8.09279966435150
H         4.61616651532109   -1.14308905089669    7.20422415120086
C         2.00618820159710   -3.34596269432036    6.70334894348740
H         2.30384905854222   -3.72872145473425    5.72966674366180
H         0.92150222669447   -3.29498908947811    6.73417357464753
H         2.34640196280641   -4.05143552042020    7.45838447862437
C         0.71678938664404    2.29508404817915    8.88706322032818
H         0.79197811373274    2.57976343500774    7.82574142290902
C        -0.69819591583783    2.62670236319429    9.36398794404281
H        -0.95505926204861    3.64376138493243    9.07723768616147
H        -0.78013101841086    2.55226994047031   10.44599574583910
H        -1.41911107068070    1.95081837410264    8.91051672915209
C         1.74878547043257    3.10913154572307    9.67398300180636
H         1.51058169383680    4.16823964825915    9.62071000928831
H         2.74432130152515    2.96176393257346    9.26232556727031
H         1.75551899636570    2.80408681579728   10.71932111943476
C        -1.09897847624901   -0.17835419351923    6.10482384599475
H        -0.65380328186693    0.81630505700570    6.22204558179191
H        -0.80742918151033   -0.77425441268104    6.96381366486277
H        -2.17728463946215   -0.06336585309452    6.14061555201692
C        -2.06194357083878   -1.28110131431638    3.35833494829204
H        -1.80967719580663   -1.92479202833491    2.52281502196570
H        -2.44970312712183   -0.35370083599476    2.95045097113782
H        -2.86527266406458   -1.76161743343719    3.90792172072790
C        -1.87521846841465    2.48697059695610    3.84852131329647
H        -1.10559866293237    1.75366088047709    3.60566589525623
H        -2.13974260612177    3.01661727524004    2.93741598298815
H        -2.75826157050036    1.94613237992979    4.17099242363510
C         0.29537590210738   -0.29573141770360    0.76287909826713
H        -0.33218540699095    0.58511145251973    0.85814000782891
H        -0.36477571558062   -1.14546059307011    0.62510588195767
H         0.88063377694523   -0.18976649171981   -0.14583764145536
C         1.95194666231993   -2.37253198250708    2.27006781790175
H         2.56305512315468   -2.60979876617696    3.13420156576193
H         2.52199075914727   -2.61557682489428    1.37939005691692
H         1.08428329254244   -3.02264144643344    2.29776142128476
C         0.75535787892130    5.95093422171416    7.26544473867331
H         0.09127011984053    5.34690823081216    7.87241194138997
H         0.20494132042347    6.83436573722902    6.95935005147204
H         1.57479963368423    6.28303267796388    7.89468736216558
C         1.52797817442597    6.27094670445203    4.35619438242488
H         1.94777371808350    5.85156815925671    3.44798625033178
H         2.15682175235108    7.10269064363545    4.65759982089569
H         0.55121492750664    6.67468094296920    4.11047194125303
C        -2.03835976948020    5.37535442363340    4.81910047773873
H        -1.74822203216685    6.11346306027087    5.55712786657798
H        -3.12229491859917    5.32182939494785    4.81690254480479
H        -1.72941228027677    5.74225785235714    3.84466705962541
N         2.19763299550344    0.87450633715432    6.86776592480310
N         3.91348844443024    1.73515979473079    5.65624050528295
N         0.43510677812629    3.60500864421408    5.31834985621170
N         0.71231018838567   -0.04750387640169    3.78298396213420
Si        1.41798173247005   -0.54444753738336    2.29411669541590
Si       -0.53638794843787   -1.01081289478155    4.47729705998504
H        -0.08736420096295   -2.38653222711832    4.80612910386980
Si        1.39035464629158    4.97020861905775    5.75542814585642
Si       -1.28066120320609    3.67212732622589    5.22630787309001
Y         1.51829842392876    1.69371125105163    4.90097167404118
O         2.04306293378135    2.96361035069712    2.73148477294866
H         2.76457336953959    4.46429493237148    6.06869608044831
H         2.64424411859948    0.28693602074728    2.08825064296588
H        -1.91915168423548    3.26520933788611    6.51112988082501

