21
CSD_code = FONRIJ | q = 1 | S = 0 | Stoichiometry = C9H8FeNO2(1+) | MND = 8
Fe        0.96404742823767    5.32418187956784    4.98789341206684
C         2.46753019030439    5.36321377847567    4.05191016334072
O         3.43286407561998    5.39959897006776    3.46185988053326
C         1.24548651391508    6.98375900235728    5.53785273131274
O         1.43922559672975    8.04386525419135    5.88455274753307
C        -0.00625778326331    5.93209194678947    3.53744730954819
N        -0.62148980903388    6.30479198750968    2.63061682658363
C        -1.35047561296489    6.76047603590323    1.54236117990422
C         1.57013833892306    3.59892626781446    6.27822805205847
C         0.73128485952065    3.10698205643151    5.23733012742623
C        -0.54906436339045    3.68635351485027    5.40197142898185
C        -0.49573670320795    4.57252670956725    6.50795909041968
C         0.81098685638688    4.49502911755512    7.06513622051930
H         2.56241864392138    3.24449795959497    6.50579772159992
H         0.97768114658419    2.30701258810907    4.55854529434159
H        -1.43362565533279    3.43124962180924    4.84100266333096
H        -1.34115982037785    5.06618283000823    6.95844685971614
H         1.12841391713223    4.94682803956223    7.99099961803651
H        -0.87794947093213    6.42011525568607    0.61969889521327
H        -1.37875342900337    7.85107756499567    1.55685231841414
H        -2.36776491976886    6.37033961915331    1.59603745911914

