38
CSD_code = FONREF | q = 0 | S = 0 | Stoichiometry = C19H15NO2Pd | MND = 4
Pd        1.78276060895182   15.47174586458886    5.19817462866610
O         1.71890097165477   13.89751004762466    3.64294027927379
C         0.97131437561122   12.89208567383863    3.68076170919856
C        -0.00531413345541   12.62689683003929    4.65039212966945
C        -0.34933015950620   13.46279551272167    5.71439029607540
O         0.15986769201862   14.57340025244317    6.03255686551158
C         1.12977891933381   11.86491544332427    2.57537579014298
C        -1.48971581013055   12.98921105250404    6.59870204900468
C         1.44283821573044   17.28743933994181    5.95341296488764
C         2.30406269343218   18.25665970277611    5.36054769660606
C         2.11239713178688   19.62455078327260    5.60432996515944
C         1.08309427724806   20.03202584181218    6.42321427375751
C         0.23130666390583   19.09288659739205    6.99654615695696
C         0.39820012264198   17.73686173616119    6.74716157510718
C         3.36995221367963   17.71240728656510    4.59174951204955
N         3.40745638216333   16.39784127964685    4.54003282233829
C         4.43446575767628   15.67058628960816    4.08735506845900
C         4.43542516488754   14.29372561439107    4.37069643641428
C         4.88614205266854   13.31890455065892    3.42573478767163
C         4.79539713249152   11.99997798906143    3.75868838566215
C         4.17244548283698   11.73637962230917    4.87472196544908
C         3.68449915154211   12.51864637893797    5.78058162763103
C         3.86538805982038   13.86318572245280    5.63911742195675
H         2.76707405052537   20.34725220422096    5.13795867818533
H         0.92958584313788   21.08383594646162    6.61683067302182
H        -0.57064917899854   19.42544575168401    7.64042798087422
H        -0.28143375508134   17.02161664618909    7.19454099201581
H         4.15880692305177   18.31906696130151    4.15170996686260
H         5.26020886518273   16.15157368463515    3.56913559580640
H         5.19742735642736   13.64122667715669    2.44692506358982
H         3.84089563685886   14.55005283810407    6.49014889258667
H        -0.56677593978773   11.71051361268822    4.54670906856554
H         1.95028227365646   12.15506643583262    1.92429994869954
H         1.33419603243527   10.88593552543083    3.00231446873599
H         0.21266494772319   11.79951375522710    1.99385893855815
H        -1.61901698704877   13.68017330637842    7.42767373045135
H        -1.27917154318161   11.99445743712546    6.98392065223286
H        -2.41112749189859   12.94552980551126    6.02186094216129

