40
CSD_code = FONRAB | q = 0 | S = 0 | Stoichiometry = C19H17NO2Pd | MND = 4
Pd        8.40150049853874    3.69273293829192    2.99063229091304
O         8.37409016658989    1.61879734022963    2.34739987729359
C         7.40870998385885    1.07048537097740    1.76426274953680
C         6.21958398204299    1.69477078672774    1.36446707458316
C         5.92350669075462    3.04942239916340    1.50940944053654
O         6.63671476068769    3.95184155280695    2.03326286295224
C         7.53004435563874   -0.41302418506756    1.46990311446896
C         4.58826891433799    3.51268693973964    0.95306730351460
C         8.75268150332685    5.63856909337476    3.24346221156237
C         9.95539730051400    5.87168307320275    3.95654582561752
C        10.45051019888675    7.16307433167884    4.15016725812572
C         9.75780631336990    8.23649328850007    3.62982432217542
C         8.57920725278564    8.02566836334107    2.92432355283873
C         8.08355073318197    6.74374668761297    2.73091988518371
C        10.53433096862023    4.67732408311527    4.50365311698293
N        10.00051518895529    3.56449359995069    4.14134290796310
C        10.32242051552906    2.32141775932919    4.79297453671988
C         9.04062316296024    1.56038874519808    5.07947005724084
C         9.05626508252006    0.15640248009718    4.94507200331065
C         7.80725259625554   -0.33619601163170    5.15571578569021
C         6.75249716929174    0.31188360365071    5.43389627973263
C         6.61507343914054    1.65703723117758    5.58548763331939
C         7.86874760624949    2.27336622613859    5.39919411084543
H        11.37062910549372    7.31281554111353    4.69809935097292
H        10.12999305769362    9.24106741452922    3.76931791660143
H         8.04461002965361    8.87405645940123    2.51996716549450
H         7.16237635264931    6.60295152291645    2.17878012336841
H        11.33796054629887    4.71179634569892    5.24180693462754
H        10.88496699569503    2.49809529693876    5.72381224728462
H        10.94381289739785    1.71609769690003    4.12157121375891
H         9.94563349584058   -0.39461532457367    4.68690929739645
H         5.72053645981523    2.20787097133538    5.82435107625562
H         7.92462390249144    3.34852837353962    5.58633799333716
H         5.47688707206014    1.07835285074457    0.88075162950252
H         7.27819649704909   -0.62128031733579    0.43320757405766
H         6.84148659051545   -0.96260011924380    2.10897017097127
H         8.54409814080934   -0.74558958538751    1.67549728048996
H         3.78115715146745    2.89894116421044    1.34533806979153
H         4.59083595400040    3.42345653100384   -0.13149357471998
H         4.42139736703313    4.55208948061005    1.22382132970343

