84
CSD_code = FONZAJ | q = 0 | S = 0 | Stoichiometry = C45H30FeN4O3S | MND = 5
Fe        0.84372611694769    5.26697401981895    1.32831060167804
S         2.22155741941823    3.18692900333511    3.17807971081644
O         0.97599838832557    3.93691830522308    2.80224956959403
O         3.31031853900818    4.05972852769536    3.56323512660131
O         2.56988251234379    2.14606379743964    2.23889680504391
N        -0.79639447054770    6.11123629421118    2.00123855142681
N        -0.15804802618059    4.01230509655648    0.22378882078975
N         1.82407429566661    6.54900513046097    2.41396330003720
N         2.61969088430211    4.55037007312116    0.53139985826351
C         1.65333496293077    2.35823869532331    4.68942055999160
C        -2.99706550872846    6.75266069894525    2.16332669427959
C        -2.29176074575263    7.51829718949832    3.03070719657598
C        -1.90100064682755    2.74363089362725   -0.57830317856523
C        -0.75454286814558    2.10816684129953   -0.91438911070634
C         3.66461929344860    7.38204580353342    3.49818351533985
C         2.58343437896742    7.89257730957382    4.14764760488150
C         4.82557958336279    4.09944361153209    0.10240445949032
C         4.09348170920943    3.14670258164968   -0.52867208520267
C        -2.06151805378238    5.85178680216712    1.55918832262707
C        -0.92638061850324    7.09717039016646    2.93828682671684
C        -1.51889493422666    3.92622305264424    0.13844154609273
C         0.32464152488799    2.91734352617815   -0.42538079247690
C         3.15372034237935    6.55475144693921    2.45544177336725
C         1.43600840742152    7.38241848300502    3.43735366575691
C         3.89506909714397    4.94201171778398    0.77552429771614
C         2.72068953192607    3.42440291045481   -0.23249154575844
C        -2.42790830912542    4.81321707643102    0.70401671042789
C         0.10542391508567    7.67821661847187    3.68426686421886
C         1.66856366072636    2.62252494530816   -0.64874721733432
C         4.18958301140637    5.95480932060805    1.70821358083320
C        -3.86540583640746    4.59632469030750    0.44008368436497
C        -4.73911747159547    4.29068059053250    1.47977151982554
C        -6.08255417604389    4.08104480345020    1.22716054281685
C        -6.57238033333787    4.18048461914573   -0.06457480651704
C        -5.71004470759213    4.48480846511710   -1.10472927288397
C        -4.36452269154411    4.68676638538356   -0.85620664770396
C        -0.23340699368716    8.64910561509722    4.73978033098609
C        -1.06626092202672    8.28387311007781    5.79454086874469
C        -1.37396888340911    9.19199414773499    6.79087537599777
C        -0.86225858770828   10.47845685000637    6.74391291099619
C        -0.03688965308974   10.85161099179400    5.69622067332987
C         0.27945455164709    9.94322943322832    4.70244975560508
C         2.00768874762198    1.35123932640658   -1.32022620525276
C         2.65117710653114    0.36591753444678   -0.57541188249896
C         2.97908841481123   -0.84100371322053   -1.16571299207429
C         2.67897723791800   -1.07094907434628   -2.49935952008859
C         2.04386556144922   -0.09060531008157   -3.24308129575633
C         1.70419427851715    1.11620238200820   -2.65623610826763
C         5.40124491641964    6.46154643734908    2.21576108644997
C         5.14672709742098    7.20844157921899    3.50939887321206
C         6.10389001673919    8.30106822163413    3.79578670414658
C         7.30628943082970    8.30779771498460    3.18849015425472
C         7.62792657084995    7.35833607227414    2.17601694027753
C         6.69367576613636    6.48548788523791    1.68128170459998
H         2.46827568814591    1.76372912263984    5.07735550499904
H         1.36388676644487    3.13211034641030    5.38461564431832
H         0.81237486898029    1.73985720799051    4.41292751162169
H        -4.04581764221235    6.79457841541488    1.94376325465656
H        -2.65122822288007    8.31112243659345    3.65723180034241
H        -2.91088694714745    2.43812235663893   -0.77064592413430
H        -0.63995847692324    1.18056832486403   -1.43958142625600
H         2.54078300204220    8.53091471164153    5.00866474748592
H         5.89234315844784    4.19179067617985    0.13053195302402
H         4.44356048105879    2.32948193240950   -1.12818400323382
H        -4.35219355338728    4.20429753782802    2.48429210561971
H        -6.75011860977209    3.83768034013399    2.04083335761657
H        -7.62210997746042    4.01908963971269   -0.26024249728439
H        -6.08745431610826    4.56411128744999   -2.11380266456109
H        -3.69082384139900    4.92726479872258   -1.66559450971186
H        -1.45726125683468    7.27796307885875    5.83206643310853
H        -2.01625393731332    8.89604953450379    7.60743327001322
H        -1.10662896805107   11.18794813314854    7.52055351537652
H         0.36050786133544   11.85526634283641    5.65249277418475
H         0.91260637772731   10.23665125209462    3.87788748879009
H         2.86925914206779    0.57196180687981    0.46236588186422
H         3.47482025136287   -1.60546169561858   -0.58544263117459
H         2.94050931587304   -2.01270999349483   -2.95969569423247
H         1.81109840748990   -0.26629916639116   -4.28358952098977
H         1.21303506721068    1.88503069241003   -3.23569249172839
H         5.31604934354742    6.44934395330734    4.29933869459369
H         5.83338243231629    9.02993323015443    4.54426362390547
H         8.04040020330812    9.06203166869180    3.43093544177947
H         8.61249170406248    7.39617084749232    1.73444956127038
H         6.93077884450237    5.89197225975694    0.81257437166049

