37
CSD_code = FOPBER | q = -1 | S = 0 | Stoichiometry = C18H12S6Tc(1-) | MND = 6
Tc        2.57869691351924    2.67933735265955    1.79580348882696
S         1.48743928629262    4.50765523066819    0.74674169539315
S         0.90738485934531    1.41639526021049    0.68406886465020
S         1.63441847733949    3.47541730880001    3.82172232389981
S         2.98637829132346    0.73187037884158    3.08752916250754
S         4.36728086735824    4.18054865936459    2.23139713361804
S         4.10275346715228    1.78923636284150    0.20788502226881
C         0.17517594876799    3.88614056217773   -0.20060125829113
C        -0.63090916764834    4.75187031553648   -0.93947951558683
C        -1.68460673244128    4.26066724958734   -1.67868454331054
C        -1.95481376210588    2.89502539736213   -1.68931076940355
C        -1.16593167972522    2.02777509842135   -0.96558651389966
C        -0.09496612258460    2.51039243805342   -0.21385053147970
C         1.80510571659856    2.23822403071896    5.02459293387503
C         1.34285424931871    2.45113574989140    6.32306955231861
C         1.49234977458911    1.47483545454281    7.28356491607661
C         2.10978203049950    0.26863356714342    6.96426155895988
C         2.56869823174229    0.04331258202751    5.68486268743175
C         2.42424197149150    1.02236622748044    4.70217617981464
C         5.68375858451568    3.78354507608477    1.17586031158821
C         6.86748198324677    4.51986883285147    1.21875506090631
C         7.90734658075852    4.21551410479543    0.36786327107056
C         7.78178242460591    3.17131639737784   -0.54431936147886
C         6.61954000442607    2.43329439620724   -0.59584053464078
C         5.55872957219444    2.72939458957691    0.25976324655205
H        -0.40702632580075    5.80789225809848   -0.91794887715668
H        -2.30321520360047    4.93832545444593   -2.25037382849085
H        -2.78471424231665    2.51305388942362   -2.26729365995724
H        -1.35957551054711    0.96558974527328   -0.96307532653742
H         0.86792406617569    3.39326417726887    6.55236900299478
H         1.13042296121927    1.64744648344043    8.28751930257756
H         2.22922409869160   -0.49400183263317    7.72111889012026
H         3.04870251214146   -0.88646912614161    5.41870838540774
H         6.94618399674098    5.32685689515167    1.93170634632389
H         8.82192935661460    4.79049274705546    0.40846310779986
H         8.59794740644962    2.93759183751250   -1.21360801879926
H         6.50492511365178    1.61898484788046   -1.29542970595080

