23
CSD_code = FOPBUJ | q = 0 | S = 0 | Stoichiometry = C11H7AuCl2FN | MND = 4
Au        4.00475842493030    3.43412389747682    2.50093461593325
N         5.79200848961851    2.60123348541120    1.97395265172638
C         6.89124607582479    2.64665932616486    2.71674413551267
H         6.79471537389780    3.16960375782100    3.65987691464009
F         0.82924412687986    2.23512253894337   -1.68793036133802
Cl        4.82798347364354    4.22468947076354    4.50623577767943
C         6.95190560016673    1.37177287275695    0.31245996372718
H         6.95178987101926    0.87334313555628   -0.64272563321849
C         8.10094470181579    1.41375721192768    1.07855983294601
H         9.00745398654850    0.94647316372770    0.72488910075612
C         8.07358111047386    2.06312985783695    2.30562398183207
H         8.94715919257786    2.11867716853962    2.93350626453546
Cl        1.99301555347695    4.27054698485730    2.90007793420512
C         4.51366964538317    2.01037513495803    0.08118094002842
C         4.29480441203290    1.42477171599247   -1.16780145631604
H         5.09462416691396    0.90921780048770   -1.67558082580652
C         3.05517478966397    1.49758138185569   -1.76799599558537
H         2.86932320185271    1.05066244071786   -2.73166153600200
C         2.03438146523328    2.16200831916126   -1.10822249192653
C         2.22196225210901    2.75316085072757    0.13317758045285
H         1.40166049429677    3.26176072654936    0.61529340106492
C         3.46125059003045    2.67857574081607    0.73052695995983
C         5.78584300161023    1.97865301695097    0.77887824519287

