29
CSD_code = FOPCAR | q = 0 | S = 0 | Stoichiometry = C14H6ClMnN2O5 | MND = 6
Mn        2.16294165650872    1.65009701228293    1.73716332959352
Cl        3.97110394474298    7.44139072536164    4.11617590458753
O         2.72478881986327    5.21785698683054    5.47675587688576
O         4.95503718592163    1.10984242381872    2.44318666190998
N         1.75075249311888    1.57884470961963    3.74735050653989
O         1.05424343282988   -0.99751918454471    1.08506484406980
O         2.86152283942084    1.93945030685743   -1.09858670470737
N         2.62784748468490    3.72746741770413    3.71032211750125
O        -0.11100922670505    3.47545708741962    1.44879847766298
C         2.08878221396759    2.67401421660278    4.46088985772221
C         1.01091651341658    0.50103965361883    5.75087796500176
H         0.57886260286130   -0.37242913881983    6.21061838235148
C         1.22270486042209    0.53097460061454    4.38857678880381
H         0.95807827165069   -0.32692266339925    3.78419121500526
C         2.94648164431528    4.97791023257724    4.30544165488875
C         3.85724950340148    1.22840031644378    2.15287485545039
C         3.54779578826901    5.93327336278215    3.40484329369391
C         1.91538106246329    2.70495598560663    5.84779113685406
H         2.20059594667116    3.58378134201049    6.39973469582691
C         3.37109839007017    4.42456795497232    1.56871816276561
H         3.52757172745602    4.24044236643109    0.51611983347150
C         3.75906363280115    5.67343326313927    2.09156609580991
H         4.20930534186887    6.41434747453038    1.44988753007755
C         2.80909306975588    3.45609360226944    2.35435726433185
C         1.37437885209468    1.61337715478966    6.49453032175593
H         1.24060323208252    1.63580374265878    7.56455490506885
C         2.59428529223341    1.83665248291794    0.01081275123558
C         1.48049060135947    0.02631288465480    1.36945519804179
C         0.71343282245339    2.69058368024894    1.53832707779987

