67
CSD_code = FOPCOE | q = 1 | S = 0 | Stoichiometry = C23H38CoN4Si(1+) | MND = 6
Co        4.97448401791361    5.05932107579098    4.64476784436739
Si        1.77646379976065    1.40255267215620    3.55268562851746
N         3.49338987826040    6.35453101879715    4.34234880826342
N         5.53796404236428    5.07728053132469    2.73579962278285
N         6.44465445823174    3.74943555649822    4.93817113568769
N         4.39567816513879    5.03079204845599    6.54936155074063
C         6.18873160731496    6.47733091296436    5.06407533091643
C         6.96542917429513    7.35793660836476    5.36040980072886
C         7.87278324034360    8.39883982962247    5.69096139926967
C         3.76363034677763    3.64705398908581    4.23172695674920
C         2.97350578587116    2.77202785467755    3.94343371296255
C         7.60752668186990    9.25030365258163    6.76328297250096
H         6.70431089823198    9.11448763903914    7.34353277731736
C         8.49413332444096   10.26079744949723    7.08072117420397
H         8.28335809415670   10.91681918461562    7.91241363676889
C         9.65013785068518   10.43384954988464    6.33665878001771
H        10.34083115614163   11.22412383154417    6.58792317528855
C         9.91847222609056    9.59153528583092    5.26964668293990
H        10.81884924793801    9.72529590845543    4.68836789927795
C         9.03755706529037    8.57846544121547    4.94496698120445
H         9.24553795092913    7.92001000685097    4.11182646582176
C         0.67853445578901    1.96488370684363    2.10169079429755
H         0.12391321126363    2.86702741669421    2.34375778122639
H        -0.04559779506694    1.19656250871115    1.84805323790596
H         1.26456593572696    2.16664235732019    1.20962224918225
C         2.78385901045214   -0.14469642496192    3.08463189156472
H         3.41309322146374    0.03334122268726    2.21730843841088
H         2.12526964958020   -0.97361818320956    2.84377221199213
H         3.42702727747578   -0.46596975275621    3.89896708435530
C         0.73053882322552    1.08373014549866    5.11283676650112
H         1.34801053479233    0.78694072998934    5.95586872717142
H         0.01339920802456    0.28738629468196    4.93874910156846
H         0.17075454485375    1.96658503187401    5.40807016520717
C         3.69634722763393    7.45777424930308    3.39799886905116
H         4.49008049051115    8.09921127385614    3.78964256678521
H         2.77615652843138    8.04933722340432    3.31981886058254
C         4.08876645811842    6.95051897612074    2.01374416344399
H         4.07128583677359    7.79251806616094    1.32211860962659
H         3.35737180991488    6.21684192237148    1.66480463934771
C         5.48705249124521    6.34077057034010    1.99342246522627
H         5.79311235292003    6.16983455835766    0.95421149323311
H         6.19357455591911    7.03537253582212    2.45504934960728
C         6.86591110750801    4.45443156023607    2.66716967030814
H         7.60501210576099    5.19155630086360    2.99449332992731
H         7.10998817456799    4.14075014427646    1.64633488757048
C         6.86543541371743    3.26430159258478    3.61720180300736
H         6.13704853534667    2.52036204632580    3.28106499736070
H         7.85493454220313    2.79604573869176    3.65876645706844
C         6.23110825586196    2.64470829953450    5.87880759220965
H         7.14696801461964    2.04636070389107    5.95640775807455
H         5.43240891727908    2.01244040678170    5.48252092780850
C         5.83977741515775    3.14947091394415    7.26423256806297
H         6.57372118328167    3.87899126500302    7.61667510904786
H         5.85405410843128    2.30553504013974    7.95353869993620
C         4.44323810209910    3.76322397050764    7.28535812275053
H         3.73501216224735    3.07401277322624    6.81829416903141
H         4.13664740133213    3.93050180010403    8.32500731213229
C         3.06199531966174    5.64330190525778    6.60819103634041
H         2.80793629971861    5.95324937009604    7.62775185128852
H         2.33249217379343    4.89978187589531    6.27360528925749
C         3.05852356651104    6.83495166672084    5.65999974485972
H         2.06516510464458    7.29428780750997    5.61193491599633
H         3.77644811434883    7.58632936254207    6.00193498748999
H         2.73714360909012    5.77131854962296    3.97048987219036
H         4.88041767620046    4.43340830237857    2.28498983986687
H         7.21150868391219    4.31959884261350    5.30860283210639
H         5.04465917156563    5.67519528492728    7.01180442367586

