67
CSD_code = FOPDOF | q = 0 | S = 0 | Stoichiometry = C24H38O2Si2Ti | MND = 12
C         1.02531219865716    2.45066311517476    6.08645885993914
C         1.04700444133675    1.25539329355747    5.45058983711725
C         1.87581745932537    1.19942327886309    4.25579120992089
C         2.72195479451198    2.19819911211796    3.94685748061961
C        -0.22973226137083    3.64129454570740    7.76345246471349
H        -1.20016680509223    3.74446479168933    7.25165527440520
H         0.38126897513282    4.52892392647500    7.53687781897979
C        -0.45505909343008    3.51966272818907    9.26450574702346
H        -1.04223375025750    2.63019099775503    9.47720274397138
H        -0.98342383742384    4.39324665612495    9.63657883550392
H         0.49725914416711    3.43099839749454    9.78168626459561
C         1.08800274231021   -0.48762968352867    8.00816623009328
H         0.57770113077850   -1.25522449773732    8.58249789356689
H         1.07923728014757    0.42548239737236    8.59218283957898
H         2.12213498724512   -0.79998134929923    7.89006541175674
C        -1.62753492292915    0.08274455031388    6.53696857486099
H        -2.12225239996399    0.29697724049729    5.59341084366267
H        -1.80443067539059    0.92281712083027    7.19913969035978
H        -2.11153623985318   -0.78692699514274    6.97091448973188
C         0.43372459890691   -1.91323294332376    5.40106663197292
H         0.37132109197469   -2.72687744675953    6.11738911544560
H         1.38812679340566   -1.99002368638274    4.89281472509086
H        -0.34909334127724   -2.06877038383218    4.66621927433651
C         0.59128517995721    0.05809649253713    2.67002201875241
H         0.52345778304236    0.98637419707821    2.08146388344713
H        -0.28444279767936    0.01334857617491    3.33277762737903
C         0.62392848796652   -1.14751491873193    1.74422943159149
H         1.49568085533763   -1.09294544588601    1.09724104849559
H        -0.27443807790163   -1.17219794167184    1.13304279314850
H         0.68576606343695   -2.06190137677798    2.32689559536103
C         2.96277806785377    2.16284989658917    0.77519951136571
H         2.36986544783043    1.28479789669919    0.54354544321719
H         3.68212396633604    2.29088933720274   -0.02832432033440
H         2.29837186121047    3.02227706406527    0.76090709163776
C         4.76220605214446    0.27473770938338    2.45878469239302
H         5.41275872567269    0.17164556199408    3.32237928853100
H         5.37561700570664    0.16199287921170    1.56960684533145
H         4.05184502256493   -0.54272499661931    2.48775985829330
C         5.27054769686260    3.27298654251683    2.47297573727004
H         4.91019690872456    4.28556400689502    2.62638630980152
H         5.79460336371819    3.25661101839179    1.52246612939044
H         6.00377499563688    3.06120825039989    3.24494173416343
C         2.12263167743936    5.06601707817835    3.24933896259032
H         2.74362224544118    5.03367746360406    2.36654120209713
C         2.26683191216530    5.94918692878558    4.32919840384812
H         3.01468440281859    6.72805336816448    4.41099378024007
C         1.17530978473789    5.76044255647927    5.20219060197392
H         0.93556339007679    6.38752361689635    6.05385257988811
C         0.34866925430460    4.75656578773586    4.65226343135852
H        -0.64601004198336    4.48888863590299    4.98624274841230
C         0.94461752108484    4.31985974117348    3.44697735748492
H         0.49866053971733    3.63083698437200    2.74129240042224
C         4.40506993201708    2.92504988696749    5.96403246828503
H         4.97604909392382    2.13978591267780    5.48753357495750
C         4.55477932992407    4.31475313751265    5.74996318063460
H         5.25058608404992    4.77816290620749    5.06262253632701
C         3.79675707793549    4.98942351874823    6.72895250091489
H         3.79523035106649    6.05835013316485    6.90564973744259
C         3.16479112664378    4.02944513090193    7.53298160227636
H         2.60350543215021    4.23029434132255    8.43565786457449
C         3.53371635338002    2.75047202098839    7.06505861743407
H         3.30410367610273    1.80755924048123    7.54402779611546
O         0.41422971540368    2.46447247555375    7.31879448972946
O         1.78025029864593    0.07314482790412    3.43515723685079
Si        0.24835128733773   -0.23832118242053    6.30445540171942
Si        3.86107669519725    1.96557855699659    2.46421710315722
Ti        2.37639394107988    3.74496701608497    5.25321144477757

