34
CSD_code = FOPGEZ | q = 0 | S = 0 | Stoichiometry = C14H13Cl2N3OZn | MND = 4
Zn        0.98109687175165    8.15590600981687    1.92187001957910
N         2.39504700429763    9.60844981192766    1.41338969751933
Cl       -0.21105881910134    9.43272757610848    3.27299317312969
N         0.43426834279589    8.54303520519226   -0.13088050920617
Cl        1.70099468415452    6.10003084471674    2.01724068122670
N         2.53415466300739   11.47826129824485    0.25730363443148
C         3.29407558602883   11.63513979213285    1.41563936655763
C         1.09988291681148    9.83118778225146   -2.02254313991997
H         1.73994933224384   10.58199468063159   -2.45623031418536
C         1.15473549163084    9.54676298498250   -0.65488483025008
O         4.82857594040604   10.84556658906104    3.77546109476806
C         2.00729181428180   10.22531525910735    0.29303486482877
C        -0.36355928620685    7.83194574228168   -0.90797093464843
H        -0.90619961502427    7.03401732964965   -0.42103542996156
C         3.17428350936304   10.43347885779127    2.11528678824594
C        -0.50467010532131    8.07804406972216   -2.26416459791954
H        -1.17484782401753    7.48147924702060   -2.86080097369968
C         3.72356716781664   10.04120568937250    3.44046396210699
H         2.92387369396941   10.14883815628987    4.19436275348330
H         4.00339090069290    8.97584221087989    3.40854551450484
C         2.36580991962403   12.52487485914368   -0.60131325319224
H         1.69377238818413   12.38436200292144   -1.43081409924645
C         3.00211928814033   13.70081537455359   -0.36768183148154
H         2.86160089181101   14.52108547002295   -1.05276378980413
C         0.25559549058482    9.09125151717780   -2.82908523553883
H         0.20171116073871    9.29462052850018   -3.88813821871495
C         3.83366407419637   13.86597751326563    0.76530506040954
H         4.33576776095787   14.80682665419996    0.92027175454432
C         3.96614385485859   12.84368453667124    1.65761498927782
H         4.56234072687544   12.91249684544855    2.55156619269387
C         5.37018241678049   10.51594633096295    5.03195365463237
H         4.63318416021745   10.65978267636184    5.83068687943019
H         6.21478651359908   11.18362915335263    5.18943332027876
H         5.71596908385118    9.47621740023629    5.05418375612069

