39
CSD_code = FOPHUP | q = 0 | S = 0 | Stoichiometry = C12H14N2O8S2Zn | MND = 6
C         3.29264509582464    1.51075994538817    8.06385691414849
C         2.73714069123613    1.34000605096375    6.80074857138563
H         2.81219446825261    0.39490008347582    6.28911834038446
C         2.04526024605925    2.39845790682733    6.23322778405998
H         1.57759845559412    2.29188529785996    5.26615932366143
C         1.97904558401843    3.59314794717094    6.92056800024558
H         1.47618297039662    4.44868369462255    6.49958333816634
C         2.56865448967108    3.69406111058519    8.18377281146035
C         2.49235843938011    4.93531651506108    8.95982542451723
H         1.96877146061753    5.73524305856410    8.44972790337292
H         3.45621859684346    5.25787866605829    9.33646177946084
C         4.04646900464506    0.43949143296519    8.72824455143841
C         4.73274078939721   -0.52909569608405    8.00420953556168
H         4.75916073505915   -0.49636758438776    6.92771817806818
C         5.42006867720289   -1.51182318718555    8.69900655025741
H         5.98669425215919   -2.26280714544919    8.16964680560708
C         5.35340984431484   -1.52013686067756   10.07731451633042
H         5.84964962098031   -2.28509854297726   10.65235229518566
C         4.63488764130101   -0.51968533100511   10.73778279169352
C         4.56232000789934   -0.47883937749382   12.20163973976635
H         5.09668185712639   -1.28810393153846   12.68523085395560
H         3.54750578894023   -0.38663682275672   12.57147070211084
N         3.16781740243944    2.64744912713387    8.74911812048549
N         4.04003803661478    0.46128743666318   10.06112565995858
O         2.61855492730732    3.98708588755217   11.37991996973906
O         0.65592645425581    3.39194982944627   10.08761121202722
O         0.90217518782460    5.66193178449626   10.95041523362605
O         4.21908835687687    2.07137062521847   12.58637972101931
O         6.34377263976805    1.39866397728685   11.63159068690850
O         5.87784910649869    0.96815719950379   13.98858279832452
O         5.33831478810051    3.49708420587418   10.48120629922660
O         1.64457240876315    1.38845372346332   11.41017475721437
S         1.55120976760191    4.47564242460745   10.48168241890284
S         5.35162542567427    1.12482225140138   12.66682708230705
Zn        3.50126845914748    2.38109201712040   10.84705790539590
H         5.28884917922775    4.14180461070162   11.19575043726546
H         1.57305165767081    1.66801802329498   12.32965530837887
H         1.05894402674334    2.01571089620995   10.91721876442623
H         5.93718345856337    2.79053875004055   10.82991691395493

