96
CSD_code = FOPKOM | q = 1 | S = 0 | Stoichiometry = C45H44CuN2O2P2(1+) | MND = 4
Cu        7.35730422955829    2.54639646525595    4.08830287511840
P         8.06927471169731    4.46921306570771    5.00251093798520
P         7.03785791791130    0.99568182410261    5.86549515507356
O         5.93517022856258    2.88937808025209    9.24650733353280
O         6.90518521613008    4.85292992001536    8.64156079999352
C         6.02182473508199    7.53007873383887    3.37003131054585
H         5.71156851060145    7.79029084187476    2.36901960829530
N         8.22037846805776    1.19913349878686    2.77575816671294
C         5.24866288632459   -0.36184212874866    0.31414933935691
H         4.45632527914622   -0.74822613253417   -0.30877902272516
C         5.95113577697308    1.22495820822153    2.04216027650593
C        10.42364230530802    6.03580111933563    5.09907018579308
H        10.07362308818085    6.42568405285721    6.04379239080541
C         6.32729883830214    4.15434568508756    9.74578506959719
C         6.82429032516766    6.86371605526272    5.95286343857735
H         7.11269213866848    6.61237015335087    6.96210280905216
N         5.71151247554325    2.21054909470521    2.92625704277173
C         6.12609327179849    8.03621179116784    5.71475738881090
H         5.89317849531340    8.69200309957321    6.54014756546409
C         6.59330319540108   -1.23278791698390    4.32054365152745
H         7.66658233277545   -1.35058687437615    4.40353147729760
C         6.71148566930096    6.35585544469556    3.59884047820038
H         6.94454874800335    5.68002587662176    2.78429623670351
C         7.12215864082837    6.02109655105880    4.88854855791618
C         6.98115102909692    4.00041425636929    7.52156699344226
H         6.15200545188446    4.24893973860563    6.83132393974429
C         6.71728542786355    2.60137270781059    8.11242073141297
H         7.67252280626211    2.13749656536329    8.41822539705932
C         8.32297812180365    4.20603913329851    6.81032613245410
H         8.96811528042600    3.32975299718996    6.92947931459783
H         8.82968303817004    5.06012703619105    7.26743843816412
C         3.85365461124696   -0.91978337778688    4.12116284981645
H         2.78331212567297   -0.79761525088850    4.04454007497411
C         9.68091218875869    5.08085681911328    4.41223399059669
C        12.05139760494488    6.03023159102812    3.33321554658231
H        12.97631251612692    6.39953005281115    2.91750569431708
C         5.94498210022763    1.65293327380571    7.20640010583689
H         5.10188232195375    2.18909279067976    6.76365892351998
H         5.56180392250531    0.82486625599150    7.81141697358703
C         4.27643564554166    3.80736480518981    4.02998243665532
H         5.16838761357668    3.94354289137882    4.64062145000476
H         3.42273082858019    3.58009210117109    4.66570018366802
H         4.06468018995603    4.74324788813002    3.51372343347108
C         4.58653830763099   -0.05399841018040    4.91384795589577
H         4.07976815382947    0.73813031209085    5.44459136076988
C        10.44999268868664    1.27529849686222    3.69813162694186
H         9.98136643797335    2.02510776786052    4.33430947571012
H        11.26291838114457    1.74105719842712    3.14290382724259
H        10.87677132377319    0.48526022395872    4.31388811771110
C         8.09712537447462   -0.10958276870507    6.86696885126378
C        10.24419210765871   -0.55810031382113    7.85664085430583
H        11.27608335287273   -0.28174289221034    8.01479368696366
C        11.60907838816889    6.50033454324552    4.56011802228839
H        12.18751831005291    7.23869123495108    5.09447230456188
C         7.27598100769508    0.68880520585736    1.96411691436771
C         5.85784910733444   -2.09677443662118    3.53334054608288
H         6.35386990572752   -2.89284664277735    2.99834005609104
C         9.42806631219534    0.23705832338618    7.07134473093972
H         9.82113442875284    1.13480101625483    6.61242580151769
C         9.79562318040444   -0.34252326671202    1.89107533444544
H        10.80717117352280   -0.71692810908081    1.90296883008712
C         4.49960892536296    2.71549917977453    3.03975498526585
C         7.58950457926552   -1.26550023852714    7.45364128835275
H         6.55702833592888   -1.54350087454024    7.29224893686599
C         5.72952674527902    8.37318976794521    4.43148759040422
H         5.19026375060544    9.29174105287028    4.25742625176114
C         3.43596256220487    2.24817091412645    2.24833887832860
H         2.45890112762467    2.68957687228041    2.36683267822010
C         9.73449475305972   -1.70669520805169    8.43824087673196
H        10.36928833156906   -2.32878297187180    9.05028514744445
C         8.85669152231546   -0.87055709209971    1.04386554338564
H         9.10658415473481   -1.67328859445645    0.36617047009425
C         4.93986216075322    0.69194134359556    1.21730004877868
C         3.65141221225573    1.24122982909079    1.34452787314460
H         2.84830690149730    0.86253513748616    0.73012334468983
C        10.11806885542684    4.62492812866598    3.17268023582682
H         9.51455986612271    3.90144466804002    2.63811065137970
C         7.54502435238670   -0.36275852564691    1.06409186623386
C         4.48509567529238   -1.93862076140185    3.42827109006601
H         3.90931456873801   -2.61061010813216    2.81068586316481
C         8.40898132402800   -2.05867747322459    8.23435918140254
H         8.01267191672883   -2.95437181004608    8.68836268646059
C         5.96394785990204   -0.20921026267893    5.02855707065602
C         7.37600012457138    4.01663713365510   10.85276272243793
H         6.94761731914060    3.47774238988099   11.69197691708214
H         7.69188857239128    5.00385882881408   11.17482630634772
H         8.24186456805333    3.47152252328951   10.48438343946748
C         6.50299044564590   -0.86943078750809    0.23999740018176
H         6.73703801627230   -1.67170971175458   -0.44333691343721
C         9.44182751616907    0.70373798889770    2.76121261737737
C         5.08670588019131    4.89228734720780   10.24085640053582
H         4.62549192284751    4.32288839451024   11.04104508095610
H         4.37638584816369    5.00116470802518    9.42564287813404
H         5.36941044601574    5.87509000721619   10.60354612892242
C        11.30198260707898    5.09718065313887    2.63583341767415
H        11.63841800117562    4.74302128316731    1.67271706728463

