58
CSD_code = FOPQAD | q = 0 | S = 0 | Stoichiometry = C24H25MoN3O4S | MND = 6
Mo        6.53959574650699    0.67788139025556    3.86701055790482
S         2.77437711874903   -1.22014449559664    2.07802787474556
O         6.13455530529842    1.26428853220913    5.35526348653899
O         8.18475663054221   -0.04860074993732    4.30703826908195
O         5.82006658358740   -1.37111950458940    5.39931149967512
O         6.88859363107018    1.76419823413223    2.68038784752508
N         6.57869850724209   -0.99171232021351    2.51967468189792
N         4.61576028323488    0.25056652773057    3.43007818604551
N         5.37415009783430   -1.44287379616986    2.08564012052319
C         7.62774795430982   -1.51724281735532    1.94795659550544
C         7.44163622664601   -2.50657642429363    0.86041088310303
C         3.56844581497517    0.96653456509306    4.03362008185610
C         9.18875418189113   -0.42305633789810    3.54423996643088
C         8.96606954806570   -1.16012937726501    2.35323590238203
C         6.58692612999966   -3.06359650246910   -1.31546355268234
C         2.53484073228825    0.32888577415035    4.71596440759712
C         1.57247193724758    2.46491331343029    5.24525073591685
C         4.38529547950967   -0.76538847537608    2.60045817329657
C        10.07548486084776   -1.54375921384141    1.58439716459485
C         7.89909432692986   -3.81182390669467    1.00715224317591
C        10.50343779321931   -0.12828689847992    3.93029658682232
C         7.69129255807841   -4.73689406178714   -0.00042955214540
C        11.35691787854424   -1.22757264910530    1.97370823031067
C         1.54092729724286    1.08309564753331    5.31458022202508
C         2.60988808662688    3.10003989246663    4.57898280002078
C         6.78341395126366   -2.13748213096107   -0.30810570607008
C         3.60592828522429    2.35910131920282    3.97229073773621
C         7.03572713564651   -4.36529854616939   -1.16206699432590
C         3.18853428784527   -2.46260139387883    0.81918595210909
C        11.57077620438661   -0.52010115509109    3.15279128338023
C         6.68849115580296   -2.25567491666594    6.09683668660564
C         7.22581447307890   -3.31864012050810    5.14144885594250
C         6.09928971522976   -4.08701988156485    4.46002768132005
H         9.91004758465589   -2.08331050024074    0.66377139720784
H        12.19487348030456   -1.52510229209988    1.36259079445376
H        12.57626146517441   -0.27254192305345    3.45832979820535
H        10.64452759314255    0.43183420354331    4.84411904939369
H         6.44287163062872   -1.11911687839045   -0.42254250538617
H         6.08194686108303   -2.77020900655686   -2.22398891589165
H         6.87656225524420   -5.08836097707098   -1.94810163204711
H         8.04446521456577   -5.75032140425489    0.12123888107013
H         8.41008137503529   -4.09970691266253    1.91449778488390
H         7.52671360259360   -1.69808844820235    6.53480969811470
H         6.11945300227404   -2.73864451917724    6.90517655297128
H         7.84688099384919   -2.82884958811147    4.38727716882628
H         7.85986901381260   -4.00142507325299    5.71124942086740
H         5.47927487512006   -3.40339516525840    3.88465027514742
H         6.50202087044665   -4.83798969727297    3.78479240008292
H         5.47465952429294   -4.58286534752800    5.19989443210915
H         2.24242135567470   -2.84085513556952    0.44635206100340
H         3.75659495081673   -1.99247586384079    0.02481775169098
H         3.77181393705718   -3.25423278686136    1.27563674388303
H         4.43268415160037    2.83261018517199    3.45098293765134
H         2.64143020173187    4.17818352502750    4.53316632758502
H         0.79604132073878    3.04762383322050    5.71759070728087
H         0.74327472837232    0.58506033049404    5.84537474243794
H         2.52689341440697   -0.74862109488277    4.79559080856014
H         5.66537667840052   -0.58760898347011    5.95352141105783

