73
CSD_code = FOPRUY | q = 1 | S = 0 | Stoichiometry = C32H32CoN6O2(1+) | MND = 6
Co        1.63249143428236    7.88537800737590    1.89153256617996
O        -0.04398662449483    8.27161968722261    3.95981500438723
O        -0.07993780546015    7.60311462508328   -0.16327518612882
N         0.33165733984437    8.40580345890747    0.69948766436250
N         0.31248731525892    7.44541271415721    3.09475664105463
N         1.48997707354896    6.05847394274708    1.39569864386084
N         1.60587917202226    9.71695421169118    2.38912860774278
N         3.07102194105673    8.15273285225461    0.35640580577114
H         2.50498800942707    8.04486565669128   -0.48806735312033
H         3.51318289394297    9.07082441425566    0.32371694831934
N         3.06655680185531    7.53041861644073    3.41256470952663
H         3.45294943146432    6.58734100880593    3.44053528398534
H         2.51677600720284    7.67150742819793    4.26284790625791
C         0.47249501250423    5.47164494531682    1.94434950846915
C        -0.03591305905471    4.14161922954469    1.56191231433837
C        -0.60417816253185    3.97762104576230    0.30077508274640
H        -0.65954440854034    4.82360445875523   -0.36802296842570
C        -1.12266808426082    2.74899036088437   -0.06514741402304
H        -1.57219228364561    2.62727192731177   -1.03840978982795
C        -1.06342466526786    1.67877614360062    0.81297046959039
H        -1.46337303272966    0.71979797951513    0.52253273687872
C        -0.49465075764032    1.83975252607834    2.06597067395193
H        -0.44941867322537    1.00742278716739    2.75124213206164
C         0.01102596817824    3.06963314924361    2.44727237516762
H         0.45725138962030    3.19600526762049    3.42245545355757
C         3.69645167338716    5.79592698380763    0.38367865641977
C         4.67977148676099    4.81868986523436    0.42835688804192
H         4.39146012105762    3.77828683262375    0.43472482755047
C         6.02129692791014    5.16204885723866    0.45265263827188
H         6.77283543014073    4.38935525297232    0.48121538097853
C         6.39369664714991    6.49479418977323    0.43393814177832
H         7.43636301821001    6.76943069458788    0.44336188479538
C         5.42422489387933    7.48185999363491    0.39668294841944
H         5.71065068522462    8.52358298821749    0.37939993207467
C         4.08015260145976    7.13885517018654    0.37560056428708
C         4.13470340172553    8.48171612683887    3.38294804552814
C         5.45532340220663    8.05843281584581    3.34610398037294
H         5.67868093174360    7.00133464420123    3.35946145084230
C         6.48192791728188    8.98544206676264    3.29781226453840
H         7.50598260509287    8.64856224380839    3.27594850770611
C         6.19027546761304   10.33820746639134    3.28412529107099
H         6.98657603999827   11.06429131855496    3.24695365957936
C         4.87224369841494   10.76172394602258    3.32450913876145
H         4.64698261139575   11.81758597514749    3.32192788535327
C         3.83255410705633    9.84535329470046    3.38017935549735
C         0.19572713575694   11.72159643114971    2.23955046512248
C        -0.36046624658140   11.91213263678160    3.50229966701744
H        -0.46596504218346   11.06708085380732    4.16626134886712
C        -0.80302111819465   13.16780888849730    3.87609594172024
H        -1.24370712521976   13.31070589051233    4.85052238749024
C        -0.67951687862466   14.23766114874819    3.00425971951758
H        -1.02049657511723   15.21735629056028    3.30070712476731
C        -0.12191425182647   14.05006339379476    1.74995800145228
H        -0.02601163158410   14.88229778014421    1.06981997946089
C         0.30793193745681   12.79404818016555    1.36083129344812
H         0.74595136862684   12.64688093180023    0.38482683901571
C         2.23778085864149    5.42706265933788    0.33113955281197
H         1.80980805434057    5.76462789096608   -0.62368294925116
H         2.12503347957757    4.33913620848552    0.38075202397404
C         2.39920054532741   10.30069198494085    3.44790146143270
H         1.96051585761071    9.98718636913810    4.40605192618332
H         2.35080287273327   11.39348559558947    3.40106015723907
C         0.62105115117225   10.36466301220530    1.84985355385337
C        -1.18381971653429   10.19683977618052   -0.01077740601547
H        -0.78687464099445   10.78194725626303   -0.83996732767527
H        -1.82876272190396   10.83841534959254    0.58430052811077
H        -1.76155180711028    9.37182690050468   -0.42313046449639
C        -1.30379290618530    5.75342737704801    3.82054052642528
H        -0.93337344998885    5.18570360262840    4.67391885017691
H        -1.96898859681955    5.11537391090708    3.24473069014425
H        -1.85210118204303    6.61371431798018    4.20005700889563
C        -0.08318608500209    9.64123032569030    0.83193906054692
C        -0.17805918640059    6.23746786539354    2.96695078121481

