88
CSD_code = FOPSAG | q = 1 | S = 0 | Stoichiometry = C26H50BrFeN6P4(1+) | MND = 6
Br        9.93365484855940   15.37016137146587    1.10302271927793
Fe       10.29704865662033   13.49999349907765    2.46103569080071
P        10.60328709354065   14.76876752274206    4.21640336327983
P        10.46170318898437   12.29451951366725    0.63199626772404
N        12.26083418872037   13.85034031335399    2.14883150746768
N        12.29861325752302   14.94470697792587    4.15836435873605
N        12.08499017142272   12.62689661915910    0.22433248147987
C        12.92814399288709   14.67492971307960    2.97147628057653
C        14.18786261847946   15.17090891576150    2.65299706245499
C        14.74803130145442   14.82191795307334    1.43581420259247
C        14.06176216782887   13.97841261025975    0.58085329395168
C        12.81106406417291   13.50764603600362    0.97213814000647
C         9.99971577895502   16.52575359246867    4.37193203686365
C        11.08608392885730   17.59623823094868    4.34319399411959
C        10.38723616427964   14.13105555441268    5.93676065753764
C        11.10811659726091   14.92298341815020    7.02148382855910
C         9.60677337686879   12.58517238545496   -0.99110849023350
C        10.48850762218787   12.44576996096093   -2.22826901517421
C        10.54654838337818   10.44588324510556    0.67432224406596
C         9.21374218414435    9.77288840839444    0.96952142578173
P         8.15054752285993   13.45692849845292    2.68601665164785
P        14.08252044724707   10.64860387065849    3.96176529623172
N        10.30011715592421   11.81485009496889    3.66896730072652
N         8.00946668304915   12.21566851247066    3.81927658365772
N        12.57576813613394   11.37513204507121    3.51881398826739
C         9.09807576651695   11.45875223584354    4.16882354750984
C         8.91118972262731   10.37842590942339    5.02140430787898
C        10.00606280811457    9.61379262118499    5.38418776296841
C        11.23701577009712    9.95557005723130    4.88219895639003
C        11.36052216189425   11.05642140641647    4.02568800381404
C         7.12030880427995   14.73221653215045    3.53219224294412
C         6.64214765457488   15.88071758448809    2.65212564305070
C         7.05117392529624   12.93598714545109    1.29838781448606
C         5.64762629859582   12.49050273644906    1.69246864633487
C        14.82867515777761   12.08985389505405    4.89018939722006
C        14.10263428178723   12.34399531555620    6.20369698571716
C        14.99244785137160   10.94035035381320    2.36546437927742
C        14.52324416100373   10.02133479676597    1.24578644394854
H        12.45411310286111   12.38227924517727   -0.68579348327067
H         7.11671784127319   11.90839282118822    4.18435775143048
H        12.57627483801793   12.21711548192270    2.95167022529320
H        12.75530534102459   15.61995200286368    4.75986206408136
H        14.69682358278263   15.83075561305800    3.33571068899266
H        15.71419704329315   15.20826725224692    1.15468220373114
H        14.47018922373550   13.69231954612685   -0.37360397611833
H         9.33117719950761   16.70690629906545    3.52872433480372
H         9.41284243800007   16.60241781242052    5.29141846688351
H        10.61396232581180   18.57584370304494    4.36097735250125
H        11.75074037597509   17.53481033363786    5.20346936117973
H        11.66898071914095   17.52892565579125    3.42658277570807
H         9.30979722283634   14.11565619528083    6.12883256762008
H        10.72802779284423   13.09236675525582    5.94342736195710
H        10.86100917865397   14.51041238155615    7.99749877796225
H        12.18680241672983   14.86008220574321    6.89998027759983
H        10.81327805867789   15.96963126709591    7.01784779395240
H         8.78612916157138   11.86619253133070   -1.04839144435196
H         9.17672352424222   13.58846118553713   -0.97167780078564
H         9.85981783478791   12.50381142163617   -3.11378642756886
H        11.20972043584971   13.25793934500309   -2.28920061237882
H        11.00900505727248   11.48894731298066   -2.25596048425076
H        10.94513499241159   10.09738621100099   -0.28404899595803
H        11.26360751220841   10.18371004334935    1.45677191359863
H         9.35702759964932    8.70135420926716    1.09100293651218
H         8.78380516287150   10.16211889203764    1.89085693868981
H         8.50203027680781    9.92189673860758    0.16003947519134
H         7.92222227865970   10.15199458044664    5.38413078254699
H         9.89191961961092    8.76986628265999    6.04459386063640
H        12.12611249799169    9.39833982574392    5.12608537045552
H         6.26246434957979   14.20021779488045    3.96030448328794
H         7.71783625896124   15.11084858583867    4.36755877268087
H         6.15312036964312   16.63447928254643    3.26548643588209
H         7.46656287668451   16.35159920777906    2.12405244348646
H         5.92553977375346   15.53572459953918    1.91173549650728
H         7.00844184492338   13.77839564212113    0.60282978984114
H         7.56954922567936   12.11421286093391    0.79697028787017
H         5.09789462168980   12.20176310846883    0.79896430365074
H         5.67964547964347   11.62631055167342    2.35380444520279
H         5.09028859478003   13.28556394609364    2.17993429858983
H        15.87206227273453   11.83325729477525    5.08508389911490
H        14.81005142555352   12.98414500826809    4.25879200952711
H        14.55909024851318   13.17415485096163    6.73922996230608
H        13.05588914903026   12.58190938880042    6.02008713386799
H        14.14488005825441   11.46381556499031    6.84128053016828
H        14.90503981844648   11.98958891001605    2.06693522503301
H        16.04496533924762   10.74176063199422    2.58388943520326
H        15.12553909133332   10.17408339185543    0.35256553467987
H        14.61354856742896    8.97953819210304    1.54437326899949
H        13.48243208373710   10.21752858236567    0.99730618552349

