48
CSD_code = FOPSEJ | q = 0 | S = 0 | Stoichiometry = C23H17Cl2N5Zn | MND = 5
Zn       -0.73733554757038    8.88028703449194    8.53219928996210
Cl        0.86560166448279    9.87339208845952    9.69382032575793
N        -0.73704420790579    6.74144482659353    8.53244293598056
N         0.59608107255003    8.26972945892736    6.87359570452319
N         1.42151534215943    8.83923410799494    6.02141760971079
H         1.42307053502258    9.84449569477846    5.92649949394148
C        -0.73719188776456    4.00203212714076    8.53232795109349
H        -0.73724806037157    2.92197186236702    8.53228425638368
C         0.05289894317689    4.69611306701235    7.63044274230253
H         0.67306827272172    4.17692813274371    6.91818650081432
C         0.02493043649740    6.08992338899912    7.66214980286209
C         0.79468218195666    6.95626773655542    6.78796438580026
C         1.78153856259754    6.69158134731695    5.82561924747295
H         2.17353999911084    5.73782294773922    5.54054774218695
C         2.17256351265315    7.93595063965217    5.35049067244387
C         3.16800477870345    8.30254595664228    4.35727108017608
C         3.55825293575019    7.38247823029826    3.38429859313898
H         3.10543630412408    6.40320780458641    3.36584797254476
C         4.50462721445818    7.72444770841897    2.43761814157987
H         4.79661154642895    7.00523410422693    1.68700668064125
C         5.07576048566489    8.98645708854366    2.44736256989424
H         5.81438167698329    9.25254185959676    1.70652561614355
C         4.69769739468233    9.90548947962407    3.41230700526684
H         5.14496265406636   10.88797771609871    3.42727738195904
C         3.75157636803989    9.56988541967397    4.36208384807867
H         3.48490717995272   10.28833473624283    5.12285684289780
Cl       -2.34130955438695    9.87079921360215    7.36981084581826
N        -2.07012723354972    8.26974109195610   10.19132437625601
N        -2.89548224507126    8.83924279868742   11.04358328401211
H        -2.89696631391812    9.84449735730422   11.13857321489345
C        -1.52721926638856    4.69612315739177    9.43425988233131
H        -2.14745387213040    4.17694490538390   10.14646314228587
C        -1.49910854574856    6.08993399893591    9.40266422537350
C        -2.26878659609675    6.95628374952233   10.27690738622264
C        -3.25559961753401    6.69159937868997   11.23929730630448
H        -3.64763358740868    5.73784775280426   11.52434495507419
C        -3.64653836609109    7.93596354261733   11.71450705809175
C        -4.64189828455200    8.30255936573440   12.70780817830531
C        -5.03211314209504    7.38247360467888   13.68077710725056
H        -4.57932701805003    6.40318739646478   13.69916817556963
C        -5.97841332884501    7.72444519386039   14.62753233961121
H        -6.27038483240469    7.00521247132950   15.37813018935966
C        -6.54952030442941    8.98646899521291   14.61785438508793
H        -7.28809263913784    9.25255161663230   15.35874157776029
C        -6.17149039796744    9.90551969011058   13.65291311826271
H        -6.61871361079428   10.88802734159746   13.63801182582695
C        -5.22542851092604    9.56991900384732   12.70307474086829
H        -4.95878209064396   10.28838380890955   11.94230829187592

