66
CSD_code = FOPWAI | q = 0 | S = 0 | Stoichiometry = C28H35N2Rh | MND = 5
Rh       -1.16206639554959    2.07022478399193    3.33194416091806
N        -2.36279794193229    3.50654096676756    2.72951269859175
N         0.34463818689498    3.03683683909630    2.44625960155356
C        -3.27859992560615    5.50769862059756    1.69146438299904
H        -4.04228690824636    4.97603607272281    1.12479960343501
H        -2.94050389433660    6.36037297291589    1.10991360255991
H        -3.74672683119206    5.86855650423938    2.60664138625300
C        -2.13005816602601    4.58721041964247    2.01610132256400
C        -0.86106762019137    4.91252139805164    1.55287473979277
H        -0.76412426818779    5.81876794146021    0.97643510889613
C         0.29765110869004    4.16938339814052    1.77327583410726
C         1.58030605602707    4.71133337661068    1.19010507424712
H         2.33609654916079    4.82732485391560    1.96439200132470
H         1.41242037373614    5.67396404779179    0.71627680077326
H         1.97954478799653    4.02256960516248    0.44778762979355
C        -3.65955574361747    3.20921474797738    3.18588409851469
C        -4.50444413937276    2.40408423060121    2.40642680888552
C        -5.77465417861482    2.11360946421808    2.87704529710239
H        -6.43292504063314    1.49833621141072    2.28016630402216
C        -6.20369816603839    2.59743425932806    4.10099131208427
H        -7.19988450210395    2.37126235847270    4.45113108765755
C        -5.34694909207417    3.34549775306974    4.89005464341910
H        -5.67186289816750    3.69014850532338    5.86153124014397
C        -4.06987443278764    3.65529082854520    4.45165429286290
C        -3.98545539077824    1.83370032935720    1.12068980295483
H        -3.91386913439104    2.60019646062592    0.34867451423076
H        -4.63215916649679    1.03748552410818    0.76063224135650
H        -2.97405528346663    1.43575763689419    1.27841629483203
C        -3.09378212356467    4.39870025666511    5.31312867966323
H        -2.92142872247164    5.40692730919429    4.93589746041027
H        -2.12722882260021    3.87822163939918    5.30234521469853
H        -3.45284386549963    4.46680995598484    6.33693221096494
C         1.59121794145227    2.40199936454774    2.61515423260102
C         2.03406168826244    1.46010874041850    1.67764597289360
C         3.25776524434254    0.83872717303822    1.87637717206178
H         3.60382493695664    0.10969055943632    1.15719952289765
C         4.03649014485858    1.14208688218609    2.97849079509174
H         4.98889527675572    0.65255772395823    3.11880863369007
C         3.59085361077545    2.06783514942805    3.90535696915376
H         4.19664285478683    2.29821649881868    4.77050196463734
C         2.37274695335410    2.70741573427891    3.73874432073444
C         1.18437286629125    1.13216930341754    0.48566030971539
H         0.12646611006000    1.19835742461634    0.75039232313470
H         1.40474654988354    0.13238097956916    0.11860650191849
H         1.36730660238809    1.83764535984997   -0.32550115517426
C         1.87121339227558    3.70454546119674    4.73999998209985
H         2.02444897589973    4.72337128412189    4.38324542325243
H         2.38802683246245    3.59301513015530    5.69008954053066
H         0.79586528497353    3.56910213772353    4.89071058578752
C        -0.43216170546955    0.09659810558664    3.49598837546180
H         0.33572898612165   -0.25278407062671    2.81595584155344
C        -0.17161301755780    0.78571258390795    4.68889691594833
H         0.82257286508498    1.03116345224251    5.04320184190123
C        -1.24627557656711    0.35194897995894    5.66697665728011
H        -1.40223822867015    0.99767732687705    6.53232269488754
C        -0.93757233920906   -1.11514674939992    6.03336176301074
H         0.09491501476031   -1.23132047369938    6.36090945317669
H        -1.59117916228619   -1.45334720264439    6.83827522440396
C        -1.22572500619898   -1.87097084552126    4.72320542006887
H        -2.02895861969592   -2.59728096852619    4.85277936321449
H        -0.34907194258674   -2.39593886489043    4.34545519130217
C        -1.66377453043698   -0.74786654834503    3.75961891227949
H        -2.20151502983984   -1.10755767171597    2.88122723765886
C        -2.42555171998407    0.18746430810537    4.70374094020052
H        -3.31257649651241   -0.25772178776777    5.15420855122954
H        -2.70920316535674    1.14272624740493    4.21660706981443

