41
CSD_code = FOPWAJ | q = 0 | S = 0 | Stoichiometry = C10H20HgN2O4S4 | MND = 4
Hg        8.87176453431165    2.01714044009010    6.92834008728914
S         8.88224170586312    1.28254008956485    4.43040637432912
S         6.78302434588147    0.58942626530375    6.41083589515760
S         9.19132536693034    4.31929760368509    8.10134744675246
S        10.88033203432909    1.91940696447812    8.54884263257418
O         5.89143097664288    0.93273529361386    1.34664096809985
H         5.79199155401633    1.69096833843757    0.76211645644502
O         4.01607908074094    0.44553359240266    3.40535461971545
H         4.61484393839099    0.98166514699310    2.86454454645481
O        10.12062505826397    5.45778673040587   12.14950711826076
H         9.36983641976407    5.61707305075182   12.73042944834745
O        11.62086441297121    3.06707200358927   12.36336829150248
H        10.81305078372705    3.59938427195858   12.31514474084777
N         6.83981962318756   -0.29787669181000    3.91060476081296
N        11.30469257163054    4.28424516971608    9.67391021717439
C         7.43239334308575    0.45609020716793    4.83023656490911
C         7.43100753317699   -0.43889056802776    2.59255071796448
H         6.96834912327478   -1.29851775805914    2.10743798631722
H         8.50567239884771   -0.61550465708249    2.70384524538489
C         7.25296405177971    0.79333567594861    1.70000128012840
H         7.60756993987699    1.68521607501080    2.22796333221356
H         7.86811959739402    0.64910567743724    0.80300396803383
C         5.69556416274126   -1.13395191033761    4.22619312882801
H         5.41577485660253   -0.93649057638298    5.26142712373364
H         5.99092598495513   -2.18444134911947    4.12828449755451
C         4.46806782820030   -0.87298094425027    3.33324012114657
H         4.68545548323710   -1.15046149115564    2.29424906389133
H         3.65639872659742   -1.50654896492880    3.70110683771953
C        10.53486669489796    3.56728256230878    8.86235633225008
C        11.00246083440299    5.68229961606075    9.91965065257448
H        10.77960773439355    6.17108485319704    8.96578130817113
H        11.88285305558419    6.14220894156685   10.36861121501324
C         9.80019235845627    5.89655828767777   10.84470238051452
H         9.56525830172303    6.96837236600780   10.84796692208265
H         8.93432129766727    5.34959086432513   10.45596634435223
C        12.54958705429285    3.76256824481727   10.20867118588253
H        12.64101676902019    2.72534955694338    9.88494350297332
H        13.37929410391910    4.34375827479805    9.79116766535857
C        12.63418704853802    3.80144296860978   11.74589184917950
H        13.58141962075453    3.33659140732676   12.03251741235962
H        12.63144968998508    4.83913437091014   12.10233975772644

