69
CSD_code = FOPWEM | q = 0 | S = 0 | Stoichiometry = C29H37N2Rh | MND = 6
Rh       -0.42083957727615    2.38110155539944    3.33770749154672
N         0.98505513786815    0.87907460015941    3.00063358925114
C         1.91836234782406   -1.35588886373426    2.65218622521724
H         2.34974472896741   -1.09501055277320    1.68759470557741
H         1.57451344733313   -2.38568338746619    2.61306158091938
H         2.71155626091711   -1.28498763088551    3.39418765991009
C         0.78046312892333   -0.42585234372993    3.00718290094230
C        -0.42080643393764   -1.03932853203631    3.33779640032903
H        -0.42079000278353   -2.11825405866520    3.33786583136237
C         1.03821962877416    3.81970174454827    3.95910399856232
H         1.93603607351600    3.30555369530238    4.29420444727548
C        -1.71728523377678    3.96656916773070    4.08938247558316
H        -2.49647448834687    3.54662402087096    4.71489555455962
C        -0.98687452866701    5.11658227616917    4.74763310130723
H        -1.07193802766874    6.00942545767429    4.12756264483988
H        -1.46941867783452    5.34237212130167    5.70110975587261
C         0.48458673785885    4.76373856180193    5.00042238908929
H         0.57514969237782    4.28689746811112    5.98027086340155
H         1.10101056333062    5.66981259828482    5.02473580284355
C         2.27593754567365    1.27289694665501    2.57523494080755
C         2.48506419376772    1.52615805858612    1.20917696247669
C         3.74483703277844    1.90600927689405    0.77639705409003
H         3.90770514489120    2.10263084467174   -0.27396777224790
C         4.79152954855423    2.03357798690168    1.67360713400349
H         5.76967524599945    2.32965017716546    1.32470453652978
C         4.58174263494721    1.77917106635085    3.01516982981381
H         5.39853603423350    1.87356523020095    3.71678216103018
C         3.33318306535866    1.39002602724009    3.48281720338816
C         1.33852809183346    1.39240695739902    0.25102676093757
H         1.54439599577683    1.92373876478693   -0.67524130995533
H         0.42264539265630    1.78961838076905    0.70449757296779
H         1.15477482336983    0.34388357026601    0.01344044053148
C         3.14207151959623    1.08137687377165    4.94132778134182
H         2.08320565340763    1.04458059860494    5.19437862587178
H         3.63323647798649    1.83141587531943    5.55969586026042
H         3.58520919868753    0.11465122466914    5.18522068983563
C        -1.62210613671020   -0.42584620199744    3.66828102918025
N        -1.82672781882917    0.87907631439499    3.67469267748551
C         0.87561893105304    3.96661640705953    2.58596760973811
C        -1.87984941381430    3.81972163990356    2.71622933600787
H        -2.77767216330947    3.30561156679902    2.38108636729204
C        -1.32622787073773    4.76385009177000    1.67498520030637
C         0.14522696519841    5.11669019682192    1.92780569538396
H         1.65480054917602    3.54672098420825    1.96041201391785
H         0.23028138122657    6.00948084696131    2.54795345976356
H         0.62777482574547    5.34256296434879    0.97434997750088
H        -1.41679333058812    4.28710023763862    0.69509237847475
H        -1.94266089320536    5.66992040146024    1.65076127839446
C        -3.11768679822207    1.27291017885721    4.09984787605161
C        -3.32710519059352    1.52621088777834    5.46585262821090
C        -4.58697575039748    1.90606680556313    5.89834887052497
H        -4.75006820210351    2.10272917123243    6.94867141093865
C        -5.63347804586824    2.03359711781711    5.00091268195713
H        -6.61169346458863    2.32970042366857    5.34959313176180
C        -5.42340037422979    1.77915844455388    3.65940096168662
H        -6.24003762787897    1.87354875387008    2.95760683604425
C        -4.17473658287202    1.39001542210516    3.19203497746951
C        -3.98328584363723    1.08134612533465    1.73357358047976
H        -2.92435914767520    1.04468185547759    1.48074776008776
H        -4.47441937307115    1.83130558028176    1.11508336249456
H        -4.42624026872414    0.11455198241119    1.48961807084330
C        -2.18079460141488    1.39248040906172    6.42427933420880
H        -2.38682322117495    1.92396313068681    7.35042546343854
H        -1.26477573792946    1.78953787409609    5.97096868312379
H        -1.99719606201763    0.34397581453560    6.66206579864176
C        -2.76002270107019   -1.35587242657320    4.02324558967829
H        -3.19152840581607   -1.09491433846584    4.98775845378448
H        -2.41616018026209   -2.38565734282110    4.06250323277333
H        -3.55312582257087   -1.28504707715806    3.28113838228776

