77
CSD_code = FOPWUC | q = 0 | S = 0 | Stoichiometry = C31H42N3Rh | MND = 5
Rh        1.98892197595709   -0.05019721617627    3.71036955629900
N         1.07882689476696   -1.55408065477957    2.66618899445771
N         3.38838572562392    0.09883301943524    2.16527411601446
N         2.79702984892956    1.39007023975595    4.51551126289332
C         0.57988406047849   -3.10093977653626    0.83680301427506
H         0.57664568353728   -4.02523572390345    1.41134716587237
H         0.94202201342046   -3.32094558757711   -0.16369771292452
H        -0.45014751124483   -2.75454129298870    0.76649407343182
C         1.45309123635070   -2.06214663822689    1.50473284823208
C         2.61116640271859   -1.71501788794996    0.81435315597674
H         2.81455523212511   -2.27352129117518   -0.08664080446953
C         3.50790583330379   -0.70039291484187    1.12445600117365
C         4.66233724719340   -0.49631990802609    0.17041415215363
H         4.61812843549405    0.49674933446178   -0.27526955912403
H         4.64353957995272   -1.23590777422559   -0.62525721744549
H         5.61291706555991   -0.57276801618823    0.69582477884507
C        -0.19385941929322   -1.97558513070568    3.12262673614439
C        -0.36415159149368   -3.15347247017372    3.85569991503281
C        -1.63811489290949   -3.49710998328295    4.29215121478877
H        -1.76745227750447   -4.40449261396014    4.86537783188113
C        -2.73162844882763   -2.70814271013053    3.99481714166080
H        -3.71579371696574   -2.99337267231516    4.33624841424633
C        -2.56239872408004   -1.55001060545083    3.25437364780301
H        -3.41668228881637   -0.93146769528441    3.01725784611659
C        -1.30582114597182   -1.17203805292504    2.81363380392711
C         0.79070749105348   -4.06467608477698    4.16636582636562
H         0.68253631054138   -5.00660798457424    3.62637662440789
H         0.81505061360378   -4.30258109327749    5.22959392920254
H         1.73711638193017   -3.60955830402156    3.88073618114514
C        -1.09858723703104    0.09272974687978    2.03607886281688
H        -0.23526707924720    0.63933857812110    2.44399883808850
H        -1.98110906573224    0.72628951050050    2.08018987110960
H        -0.87816299021958   -0.12814799792811    0.99107284650744
C         4.35596537185645    1.11299171118854    2.30132782425653
C         5.52606215839923    0.87468586213883    3.03456111917584
C         6.47342754111016    1.88115925698434    3.13568068675462
H         7.38246799683916    1.69961085279305    3.69239178349349
C         6.26940427316025    3.11030096101588    2.53188641872575
H         7.02339099493036    3.88126983129155    2.60443980001590
C         5.08770658085241    3.35759645067526    1.85371178942461
H         4.91448637371860    4.32793359365782    1.40887830171728
C         4.11986998938261    2.37293447204535    1.73612001823227
C         5.70190760653645   -0.44358915888619    3.72409560720008
H         4.75412191841687   -0.73580895493784    4.19088954435876
H         6.47876920681374   -0.38461937172871    4.48279411880879
H         5.96940096043760   -1.22739950917718    3.01511241910182
C         2.80912376740919    2.63237371659528    1.05836613781423
H         2.67714643980502    3.69247926852910    0.85570001418422
H         1.99599572900805    2.28080747489894    1.70161294185578
H         2.73624102362695    2.08560632092590    0.11820486783342
C         0.44381945317184    0.06960926546372    5.26786577401221
H        -0.47780142650344   -0.33602072024196    4.86153495091379
C         0.18623574164628    1.37376850425930    5.98664844791649
H        -0.32000953528007    2.05948878736758    5.30074656047075
H         1.10596133234458    1.85686525772804    6.31380966479346
C        -0.71864767802391    1.17053867255653    7.21104826745889
H        -1.09666857285420    2.15052778613556    7.51661888354895
H        -1.58005863268800    0.56109792675421    6.92790638239536
C        -0.02820188680865    0.53634978794036    8.42174270978414
H         0.89002069678045    1.08402220510677    8.64224262534091
H        -0.69249221370854    0.67360959620673    9.27896482075256
C         0.28077492111253   -0.96093532826529    8.27617819241227
H        -0.31409042909503   -1.37201628301960    7.46015650359092
H        -0.02454865974487   -1.47864741806279    9.18925020968672
C         1.75661972425036   -1.29190109834466    8.04276991461322
H         1.84598737358690   -2.37698373981010    7.94511640336804
H         2.33774880165816   -0.99249240167074    8.91887616800986
C         2.36255822446103   -0.62709693207951    6.79721277196580
H         2.51580316199978    0.43345186669049    6.98920285884476
H         3.34175040090688   -1.07685584334589    6.60862820078464
C         1.44136679568896   -0.83908895358152    5.62386945216980
H         1.24403557321603   -1.89372452016144    5.44646576340158
C         3.34195534717492    2.33696777300625    4.89319161079596
C         4.01066158061452    3.50557473707100    5.39289330669095
H         3.30509460925159    4.33266836093780    5.47776155447771
H         4.80829388070843    3.78317891889103    4.70337611547516
H         4.44135184057901    3.29967866640556    6.37354513632432

