44
CSD_code = FOQCIY | q = 1 | S = 0 | Stoichiometry = C21H18N3NiO(1+) | MND = 4
Ni        5.83715119307097    4.90777200911078    0.06137580987843
O         6.07316195962258    5.69104155131725   -1.52766340784110
C         6.47783387573315    5.16859000137598   -2.64255707571906
C         6.47420679683470    5.96944029735325   -3.80733874143146
H         6.12878446006008    6.98738003448592   -3.71533641335041
C         6.88976258271755    5.46851285926281   -5.01224590628985
H         6.87246275832990    6.10129699829681   -5.88647882706890
C         7.33900694163336    4.14659335037802   -5.12713394922152
H         7.66295158732208    3.77179562169724   -6.08449137424028
C         7.36374836023174    3.34184310822869   -4.02170316663245
H         7.70933236437512    2.32157952970710   -4.09613354238302
C         6.93785016736391    3.81977115435426   -2.76439943592660
C         6.98166720668638    2.97424182135802   -1.63135091193566
H         7.40156104764323    1.97931293691174   -1.77930201902671
N         6.57258949025299    3.30025327350097   -0.44350389716735
C         6.77040213812613    2.36652971543940    0.66660061286149
H         6.65154629312310    1.33037594120892    0.33183199229314
H         7.79146425394574    2.49219618531270    1.04729756687783
C         5.76165095790999    2.71605635787068    1.77153564162047
H         6.12632590209123    2.44517563273094    2.76848116533469
H         4.82390120068555    2.17957553865147    1.58548126214880
N         5.50496269742905    4.13502246483414    1.66134978800926
C         5.07231609516460    4.88454675755419    2.62400014901175
C         4.80131250239583    4.43837084548633    3.99700140964573
C         3.90317535320945    3.40266621408986    4.25087218194432
H         3.37468821447736    2.93519076843405    3.43405382924619
C         3.64874975157472    3.00984147331075    5.55211414645547
H         2.94040920395553    2.21859031007365    5.74170472476592
C         4.30027860167039    3.62814757982053    6.60703346685252
H         4.10528307822344    3.31364550663074    7.62013267178120
C         5.20259433483382    4.65097542902314    6.36009430595726
H         5.71570380408139    5.13035640095475    7.17905330836376
C         5.44718505985122    5.06490061142160    5.06401396254168
H         6.16140552011033    5.85148569659794    4.86985203157146
C         4.85327248324867    6.27447790803324    2.21201323318126
C         4.33773663434873    7.27954586591109    3.02287115102306
H         4.08088678203091    7.06519739366655    4.04810239460740
C         4.15615196529274    8.54556397300073    2.48857781087860
H         3.76091073726263    9.34256218244576    3.09877258345405
C         4.48341212341850    8.76695373914348    1.15930013321139
H         4.35504310406249    9.73808076389338    0.70991181630477
C         4.97559549720615    7.71315651415952    0.40189231872416
H         5.23408484478127    7.83908060026789   -0.64211602562887
N         5.15628007360942    6.49970708269366    0.90853322531565

