46
CSD_code = FOQCOE | q = 1 | S = 0 | Stoichiometry = C14H24BrN4NiO2(1+) | MND = 6
Ni        1.74103252138994    1.40137125670167    1.55472901025199
Br       -1.46896623178409   -3.20279643618949    6.30351895525078
O         0.10662863186668    0.68534409018490    2.00301353882954
N         1.01634311633962    2.22778569185833   -0.15967487533050
N         3.46608873840300    2.25291887951333    1.05160691773595
N         1.58178359172674    3.41579987242028    2.84757929434210
N         2.65821583479916    0.47139594468647    2.87745986071038
C         2.08658483345171    2.95421088192655   -0.86088707006397
H         2.03960714923024    4.01259822111177   -0.60435631167395
H         1.99197039261887    2.87124041471267   -1.94967822002417
C         3.41999038071064    2.35368426144077   -0.41805025065239
H         3.48145460567370    1.34275694562468   -0.82700286476505
H         4.26300031954767    2.94004099016263   -0.80435572032002
C         3.73844802523445    3.55990201580582    1.68875413194113
H         4.31943926362657    4.19316215380045    1.00973314921234
H         4.34457175118870    3.38349223449449    2.57850430835350
C         2.48327689096483    4.32486285936574    2.14203332296961
H         2.81515377923011    5.16896154864347    2.76270219124977
H         1.94749795442005    4.73895656350667    1.28792234273249
C         4.46856091057903    1.26349325194840    1.49010379506798
H         5.48071722395244    1.68515466061129    1.48692009905718
H         4.44372155457238    0.42224575113992    0.79639001499342
C         4.08671489742378    0.74842737711419    2.87844049102301
H         4.66439416845687   -0.15059578137959    3.12330662615710
H         4.30018526608281    1.50068408412005    3.64778122620521
C         2.16692525115683   -0.36736960299640    3.72243903314631
H         2.84270852315638   -0.87143499213802    4.41498015326825
C         0.79178143585058   -0.70601878099850    3.83663794827466
C         0.38593290674485   -1.61970630903252    4.82776820659622
H         1.12516280508591   -2.04285301419909    5.49078275200304
C        -0.93269521636421   -1.96641196792456    4.95645602990608
C        -1.89682239197515   -1.41843695117899    4.10119416365815
H        -2.93232354078548   -1.69939153695603    4.21600487499381
C        -1.52609902952217   -0.53435083856924    3.12620893144013
H        -2.26076090526443   -0.10549584141284    2.46295440411750
C        -0.17537557765121   -0.13719192584260    2.95096683214142
C         2.58907743224957   -1.85139432536533    0.22684672995712
H         3.62800511547848   -1.61814849015201   -0.00054111163051
H         2.23208699888976   -2.58754981171364   -0.49699196281165
H         2.52823118803523   -2.27707814477641    1.23224806936259
O         1.84565834078250   -0.64699167976813    0.12582529613520
H         0.91461936874195   -0.87370921959158    0.25595418536831
H         1.91825392159553    3.24849202724944    3.79328967358347
H         0.76732274825057    1.39538730160369   -0.69501796014573
H         0.17307843345390    2.79087479706578   -0.07838024309213
H         0.65521662238642    3.82168157336830    2.93158003047354

