57
CSD_code = FOQFIC | q = 0 | S = 0 | Stoichiometry = C23H25Cl2N5NiO | MND = 6
Ni        4.33298422505586    8.72816792214605   14.27534914451432
Cl        6.01121139356053    9.78255558292632   13.32251702606845
Cl        2.62526880333104    7.59994973210749   15.10885747481562
O         2.79268533496173   10.43356125685932   13.81868654547482
H         2.00529275738134    9.88183313091347   13.70167362035139
N         3.06235579973846    8.33393971444739   12.00395079884847
N         4.01749982641726    7.91393410503594   12.72878071326385
N         4.57995589138471    6.84500812831782   12.18180106134445
N         5.82402819895863    7.15737737076643   14.92628821459419
H         6.76628498075776    7.51082443566569   14.75901611336808
N         4.73243177097679    9.40920678940467   15.92500954880124
C         3.94908147997954    6.58613215238643   11.01727397128073
H         4.22681521796977    5.77490468245272   10.37970219258251
C         2.96411507819415    7.54829209144999   10.90834509252967
C         1.97042865122807    7.76844062629936    9.87141428434973
C         2.01703308361921    7.06485750601415    8.66940504281858
H         2.80220734159708    6.34399876883098    8.49718007256275
C         1.06594189439387    7.29330709952646    7.69317635476238
H         1.10997492232635    6.74495507404116    6.76351550603569
C         0.05986196631825    8.22237760262854    7.90170629137067
H        -0.68044758923093    8.39839319946612    7.13545659030453
C         0.00689521399882    8.92458642081226    9.09485262034519
H        -0.77716097480420    9.64869902725043    9.26064711149474
C         0.95436867635395    8.70045538230676   10.07446023329632
H         0.91961693459493    9.23625515150461   11.00963746370630
C         5.74969508652560    6.16208548573984   12.70726291019201
H         6.60586081992645    6.83392791310039   12.54515023311771
C         5.97052902489985    4.86148080833011   11.97539079393805
C         7.11775044067836    4.66691826070034   11.21901596956766
H         7.84655973056530    5.46030175246673   11.13865954947021
C         7.33017296801593    3.46395681712134   10.56674111486482
H         8.22587125544679    3.32329881543835    9.98078087536130
C         6.39654294351968    2.44707661780512   10.66429329531509
H         6.56136779608322    1.50974049801370   10.15485358556506
C         5.24842779534602    2.63543998060786   11.41657759466837
H         4.51617228299543    1.84601701087227   11.49446325661119
C         5.03609530580441    3.83486636942267   12.07118450442685
H         4.13622949449948    3.97925822578888   12.65061379765054
C         5.62877306455361    5.90811495989517   14.22308420671569
H         4.62612101761167    5.53923186350484   14.46081688805174
H         6.36447212819113    5.13380816441922   14.49946065676341
C         5.54951969807242    7.15884789749046   16.35373828609387
H         6.34437675331846    6.69174070361107   16.95456528231487
H         4.61429001415847    6.60843292514428   16.51663448706273
C         5.31391884406147    8.58052208081139   16.79685042151529
C         5.66521787280949    9.00318098038596   18.07112013492298
H         6.13170761810469    8.30782009549121   18.75211139072930
C         5.41106082214518   10.30898215663055   18.45186073994236
H         5.67681632390971   10.65521273518586   19.43914048130370
C         4.81259535760805   11.15671201404712   17.53504872179061
H         4.59700234392819   12.18415333406791   17.78005844274444
C         4.49186820811625   10.66392340085032   16.28257054562830
H         4.02193785111142   11.29378251288928   15.54082244108028
C         2.86306825285275   11.36057786256224   12.75268425352349
H         3.81719020915849   11.87835465494798   12.84107320729969
H         2.04527583382314   12.08760409631005   12.82057682737054
H         2.82878196308139   10.85791605278546   11.78309201550740

