71
CSD_code = FOQFOG | q = 0 | S = 0 | Stoichiometry = C35H27MoNO5P2 | MND = 6
Mo        0.98246291214595    2.50688691905948    8.59627903922505
P        -0.30130440079046    2.54720904276843    6.56435527292856
N        -0.62817711764053    4.23303466645168    6.67321287890442
P        -0.05649520810953    4.63923866743757    8.24354645196593
C         0.55709622031775    2.25046934812690    4.99310557498472
C         0.45681292031380    0.98167295404287    4.42565693748088
H        -0.21171237755397    0.25166121484893    4.86493017759114
C         1.21121118679045    0.65845882862774    3.31411356730123
H         1.13015689106926   -0.32556685672300    2.87583875887425
C         2.07607990409357    1.59322380549141    2.76673001734761
H         2.66474091069357    1.33891083100456    1.89752491444864
C         2.19630361481735    2.84699535203733    3.34284648270251
H         2.88366802798131    3.56939091062437    2.92642176346755
C         1.45036276183479    3.17205002257997    4.46141250135408
H         1.55451945103691    4.13903158736616    4.93083873111828
C        -1.91626249462427    1.80509106796290    6.15804527647416
C        -2.53401850243589    2.06814139937036    4.93728508435570
H        -2.03315415477862    2.69020782594244    4.20695544540755
C        -3.77895388560009    1.53243712584586    4.66739312837339
H        -4.26044544062163    1.74073211715657    3.72308873381748
C        -4.40771185946522    0.72604895226576    5.60468894525553
H        -5.37950199044051    0.30734731458507    5.38820315542972
C        -3.78907690315587    0.44911848988041    6.81252478111561
H        -4.27413495606576   -0.18807946157587    7.53720357350119
C        -2.54455590375411    0.98853293573200    7.08999288300331
H        -2.04411279259518    0.77099823603729    8.02569923304267
C        -1.56062680200054    4.98577105793753    9.20641940866904
C        -1.54177177495132    5.92780969663855   10.23114600436442
H        -0.65808263731709    6.53321580594564   10.38571802002656
C        -2.64460039824984    6.08134353394962   11.05124151933592
H        -2.62586105382841    6.81464975148704   11.84424681472483
C        -3.76774556016226    5.29228308327463   10.86348466664152
H        -4.62737612781553    5.41514687775312   11.50548816960941
C        -3.78111988751282    4.33276486905059    9.86398415177270
H        -4.64740969000620    3.70139007353806    9.72898504438585
C        -2.67747202712359    4.17199998570151    9.04851721469552
H        -2.67107147443250    3.39835678880749    8.28886263629158
C         0.61880202307632    6.31377361928373    8.05531675865494
C         1.99257691295932    6.48364403199409    8.16843246116765
H         2.61324113607411    5.62412368230190    8.39157572131607
C         2.55155818823350    7.73924401904520    8.00545997040740
H         3.61967684020368    7.87212516770564    8.09664018379416
C         1.73845990035541    8.82540446434515    7.72725501313136
H         2.17313061996177    9.80611349178038    7.59834906439298
C         0.36544216529972    8.65934653680948    7.61738586620948
H        -0.26675015234945    9.50951294690793    7.40293996998460
C        -0.19891079969817    7.40921288159619    7.78653737064000
H        -1.27053024916217    7.27725201429545    7.70986971712643
C        -1.35170231467562    5.09811396801505    5.81391728750481
C        -0.65392441676075    6.07044007755437    5.07028722883358
C        -1.36023155529843    6.93623175008387    4.24646477273013
H        -0.84100420392506    7.68492125318374    3.66963622707663
C        -2.73962207133178    6.84917427125844    4.15669435855636
H        -3.27127146386597    7.53063349625068    3.50992360801467
C        -3.42880605242271    5.90502769771758    4.89160438299868
H        -4.50401866256143    5.84037440171585    4.83034564757333
C        -2.73393608177500    5.04029759627993    5.72053941192047
H        -3.27216709991509    4.31103453797802    6.30535191627940
O         0.69662605130967    6.08574715496994    5.22705630504114
C         1.45444463269282    7.04653000750258    4.53498628576322
H         2.48675591870636    6.87864715155223    4.83840211600389
H         1.16036756882266    8.06304634749214    4.81279552630654
H         1.36785002802849    6.91913361478454    3.45096343721463
C        -0.49397281356877    2.01730391398031    9.78076733057590
O        -1.31492349799905    1.74384279389473   10.52654631402705
C         2.02839681666243    2.88550806158721   10.19199108382507
O         2.64203327545782    3.15061576174408   11.11899295955380
C         1.57108802974669    0.65277079800538    8.54000915281657
O         1.89225946860970   -0.44141256871468    8.46638289074702
C         2.51400977722900    2.99952212238708    7.48628786736472
O         3.44199270184036    3.26106811366701    6.87480483243927

