110
CSD_code = FOQGEY | q = 1 | S = 0 | Stoichiometry = C50H54IrO3P2(1+) | MND = 6
Ir       -0.12059185154624    1.72383934176814    6.22995030503131
P        -2.15082743720844    1.16952437263914    7.35511331239178
P        -0.46821334340807    0.02002539985251    4.58215306568774
O        -2.50032385487529    3.25576847054106    5.70609607324087
O        -1.36127599644327    1.33379215611829   10.04339828361400
O        -4.56869815593539    0.11289749485321    8.64514144270903
C         0.81478649717532    2.43086959959335    8.05568329879688
H         0.32409722061165    1.93327283749775    8.88490085916575
C         0.15330745348816    3.50341716320038    7.46888634509221
H        -0.81982893254363    3.76545843708354    7.87534488788044
C         1.14005624496935    2.90153647394457    4.91254767392641
H         0.86514040815168    2.67732359818377    3.88334892763501
C         1.98323269298519    2.00808727391330    5.55798568623088
H         2.30398005423865    1.13578638449009    5.00274032467084
C         2.30833229859555    2.22354347426396    8.05138063157651
H         2.76500910573675    2.91690037362867    8.76454309923283
H         2.51330523131531    1.21378696727305    8.41115148249536
C         2.93938850893380    2.39641933761068    6.66124453568467
H         3.82622591247207    1.76470319038121    6.59639440297116
H         3.26381561731423    3.42601111755993    6.51032601156341
C         0.86320476831244    4.63348957748540    6.75982774960255
H         0.29633941110603    5.55639060222090    6.89485342557069
H         1.83682176507574    4.79031920539177    7.22492012984213
C         1.02650378314733    4.36532247383653    5.25227048183381
H         1.91238141202657    4.88473875519423    4.87275970624513
H         0.16799806208770    4.76999189342011    4.71558943090401
C         1.00568638036900   -0.69458937478850    3.72213086159842
H         0.62343314220150   -1.35753019378123    2.93790733117262
H         1.53318457439169    0.12214874779076    3.21598066759478
C        -1.48865462211821    0.40381063941777    3.07239108707874
H        -1.63523996597374   -0.53844787425090    2.53736291696265
H        -2.45952898819039    0.75937218493327    3.42399171877762
C        -1.27785424249829   -1.56693812416919    5.13775270288948
H        -0.58808290014777   -2.01843756668602    5.85364821604382
H        -2.18766537576394   -1.28881904790690    5.67062231417484
C        -2.69037081303086    4.61623624744832    5.37679806715811
H        -2.52983985938996    4.80683653292578    4.31142334146930
H        -1.95681289323564    5.17232314818349    5.95568493043722
H        -3.69370252503338    4.95129384365184    5.65333538071120
C        -0.87421871779514    1.05572691265778   11.33772248136359
H        -0.38503661003521    1.92983986106864   11.77783889828033
H        -0.14539966105474    0.25667137133152   11.21222764190415
H        -1.67469730066914    0.71119091077913   11.99742340441383
C        -5.81486045534514   -0.12981334622496    9.25504162089620
H        -6.28289211588985   -1.03860119965821    8.86495110713087
H        -6.43379998297347    0.73014220795780    9.00573106558962
H        -5.72074058251991   -0.20349361469044   10.34223009915345
C        -3.45997949411856    2.36048216368768    5.32766528676892
C        -4.38612685323791    2.55132555088649    4.31434683134668
H        -4.42406726359004    3.47434750384504    3.75729720995268
C        -5.27228611260471    1.52825597287540    4.00971544667977
H        -5.99371694492586    1.67295503868273    3.22077223835184
C        -5.23328669000864    0.33207742428198    4.70320878821379
H        -5.92589886393541   -0.45747205671060    4.45521723261296
C        -4.31635608227753    0.14937177401874    5.72746102005309
H        -4.30546262337194   -0.78176710773824    6.27373417486051
C        -3.43795041879302    1.16621434404252    6.06274453192317
C        -2.38698580243748    2.21663531813691    9.89369620539031
C        -2.91441479384584    2.99891618114795   10.90984656923605
H        -2.51552094131992    2.94581763072332   11.91018095849284
C        -3.96679350228224    3.85790486270708   10.63872682732060
H        -4.37226687177437    4.46628364569078   11.43216680936417
C        -4.50216652232008    3.92501457763169    9.36621644000562
H        -5.33456636337867    4.58060314185769    9.16202941036208
C        -3.97938182857277    3.13903852942678    8.35319843123534
H        -4.43593786434599    3.17075023327437    7.37707630070473
C        -2.91244712000145    2.28796008114959    8.59485567947751
C        -3.55972909972389   -0.77774597089703    8.81437712009596
C        -3.65254590958171   -1.97083891443182    9.52147230679152
H        -4.58202150173124   -2.26345533047079    9.98353036373285
C        -2.54357730743600   -2.79090847041538    9.64817609346702
H        -2.63190826686537   -3.71279772711574   10.20208704186446
C        -1.32997921131118   -2.43085116434657    9.08853225277347
H        -0.46582035283760   -3.06538039255031    9.20839175457799
C        -1.23533769361106   -1.24519615345419    8.38378140761507
H        -0.29159783074076   -0.92410079982997    7.96611851410511
C        -2.34138027667525   -0.42631044411358    8.21470989536721
C         2.80897818170232   -2.39593649341884    3.99974387232293
H         2.77312063838228   -2.54250171023198    2.92963972657046
C         3.69821164710260   -3.12918781768476    4.76438871275565
H         4.35269072924916   -3.84287256383146    4.28785943827904
C         3.74702243297706   -2.95143760796320    6.13707557697872
H         4.43835896935583   -3.52569745278981    6.73409211884174
C         2.90279614491435   -2.03379822601391    6.73706943271855
H         2.93324858924512   -1.88954463766381    7.80699132642642
C         2.01534945910824   -1.30028786862992    5.96912195456393
H         1.36282012020014   -0.57583310717398    6.44291375744169
C         1.95653229942305   -1.47014331538222    4.59309481615308
C        -0.10718749537771    1.02657177541383    1.06649269327140
H         0.02848841470750   -0.02416365095258    0.85402675605222
C         0.45764956947495    1.97278070812628    0.22877968041139
H         1.04180462340628    1.65437324350031   -0.62107003219800
C         0.26849619948049    3.32244271977169    0.47217964453387
H         0.70579018420251    4.05863505205944   -0.18411324816577
C        -0.49424937388463    3.72232053345097    1.55651880461705
H        -0.65288798554443    4.77391851606903    1.74567388428721
C        -1.05418043067593    2.77421781192852    2.39363766528886
H        -1.64960080764666    3.07435081750312    3.24042500664595
C        -0.86573556878546    1.41656626218560    2.16403302741820
C        -2.81701029355771   -2.50939895814694    3.39418048460457
H        -3.54771781522065   -1.76412726466500    3.67600001464652
C        -3.10910473659475   -3.41825972097279    2.39276004779786
H        -4.06368337296915   -3.37429573319484    1.89042747406265
C        -2.18143630204801   -4.38300560554470    2.03705735352986
H        -2.40831458894651   -5.09059735336015    1.25475367678218
C        -0.96710895313787   -4.44277702874210    2.69952755600182
H        -0.24517603011290   -5.20185475248299    2.43891279780183
C        -0.67547791346731   -3.53487861512134    3.70252847282431
H         0.26680103115067   -3.59945332905553    4.22771569019466
C        -1.59225051951904   -2.54979230690307    4.05418124539623

