118
CSD_code = FOQLAA | q = 0 | S = 0 | Stoichiometry = C57H57ClN2Ru | MND = 9
Ru        2.31314901309731   -1.03795419705020   16.06710439545024
Cl        0.70596803156511   -0.71011339434076   17.78799940283062
C         3.10875035404468    0.64432458159226   16.80821547337912
N         2.67072956451153    1.83132685473185   16.33182761579171
C         3.31591543254305    2.87065745936549   16.94264270567443
H         3.12458356374021    3.89891859324270   16.71715802933461
C         4.17886609356605    2.32074051983017   17.82756258801583
H         4.85496797150442    2.78199122784883   18.51753772667088
N         4.03621517063877    0.95364742754835   17.74892751458464
C         1.66042536029354    1.77424671830181   15.36382571024465
C         1.31717843214629    0.45606146458279   15.01123986945864
C         0.33210750358943    0.34218922427472   14.02586101069763
C        -0.26188391979005    1.47557226989512   13.47388377431457
H        -1.02201237248620    1.34599702584996   12.71449267481264
C         0.08925145517819    2.75776661293398   13.86516148433010
C         1.08053242324995    2.90859273403180   14.82277720790816
H         1.37915137469505    3.89622601589144   15.14307015340653
C        -0.11197836337719   -0.95337580291224   13.45150392945004
C         0.42747463897338   -1.37085578010057   12.23280269772865
C         0.00076974549202   -2.56923108417187   11.67518889499097
H         0.42410511769731   -2.90146849456407   10.73717583793736
C        -0.96427435877133   -3.33384698743027   12.30548003512825
H        -1.28670467652078   -4.26753664257957   11.86663318476152
C        -1.52920582202437   -2.89088016472977   13.48847166253388
H        -2.30371317196239   -3.47574361856407   13.96540081921808
C        -1.12109181387732   -1.69699855108698   14.06862326585342
C         1.43410146531281   -0.52426408623186   11.50767994467222
H         2.07638845597084   -1.13827961288478   10.87801972755410
H         2.04181689426451    0.04722992947931   12.20610063552154
H         0.91676148389414    0.18589914947329   10.86109456679245
C        -1.76326135341397   -1.19546254471028   15.32123096396854
H        -2.52546805365676   -1.88590662680499   15.67403356738528
H        -2.22194038083134   -0.22311790175740   15.14524410456337
H        -1.01943232878796   -1.06077432932883   16.10515986962164
C        -0.57309350342313    3.94026998953805   13.26742471967441
C        -0.02632851408785    4.54088329716813   12.13322321570672
C        -0.65782796428288    5.64768906857401   11.58454931388110
H        -0.24040853406877    6.11826171045150   10.70543371763635
C        -1.81432491182590    6.15077740364156   12.15213543937133
H        -2.29835438992009    7.01312783385185   11.71708866790049
C        -2.35191318786510    5.54894197982193   13.27527663865794
H        -3.25669252398938    5.94296596425618   13.71610196446950
C        -1.74100818930292    4.44055571683556   13.84410495827799
C         1.22634885918264    3.98625698497777   11.52242191419739
H         2.04897017716812    4.02553626611988   12.23575869015134
H         1.50523933981377    4.54862120324326   10.63458883373043
H         1.08416435140325    2.94178638559845   11.24823033627990
C        -2.32142281944050    3.77525096935790   15.05533260935938
H        -1.57748284467595    3.69906903992483   15.84692353642426
H        -2.63870663918347    2.76148036471561   14.81291828259091
H        -3.17947644403103    4.32922958765625   15.42799930725747
C         4.66682371652408    0.04633491461414   18.62049323895947
C         3.90758390509802   -0.95956894762074   19.19934929549217
H         2.85512104502880   -1.02424865607168   18.96851332621427
C         4.49536775627665   -1.87049164330840   20.06843629633749
C         5.84637423164521   -1.73407477084467   20.37214638226089
H         6.31280882370885   -2.41523388896628   21.06874362312503
C         6.60838633717231   -0.72341115883397   19.80074405870467
C         6.01809077821444    0.16876203557808   18.91476015028081
H         6.61248414248786    0.94607452173894   18.45572786792549
C         3.68276701298641   -2.96974956563178   20.63291773215938
C         2.51320442491371   -2.68108191345536   21.34715871704161
C         1.75099706768582   -3.72798542611996   21.84766258646051
H         0.85036397829795   -3.50410246719347   22.40049099045786
C         2.12387000400456   -5.04247674870090   21.64362824354003
H         1.51978648900473   -5.84718994807746   22.03627255257753
C         3.27355541547562   -5.32304909206539   20.93071885135921
H         3.56694632186854   -6.34961540757815   20.76137093957914
C         4.06247413094974   -4.30057355976076   20.42072129690032
C         2.05572330719977   -1.27510535134031   21.59281372418820
H         1.39856303855637   -0.95146561981332   20.78474585260253
H         2.89306431756047   -0.58350550020998   21.64932060989362
H         1.49069808194428   -1.22231195768736   22.52105333962740
C         5.28953760634248   -4.67169933552324   19.63552895860181
H         5.55101370343344   -3.90471890816506   18.91061864641400
H         5.12699817793708   -5.61023868835147   19.10807121563710
H         6.14007121774262   -4.81186099206252   20.30366821604404
C         8.05177276967275   -0.60934587357855   20.11831947411622
C         8.46064959784928    0.14441383070584   21.21892397442070
C         9.81501401915149    0.23735922239880   21.50487791143268
H        10.14064750620373    0.81844301533954   22.35574706158472
C        10.74814357326469   -0.40625913773574   20.71249682627768
H        11.79994168818054   -0.32724330096009   20.94467764740790
C        10.33495254056900   -1.15107738519913   19.62299898422458
H        11.06552622217733   -1.65348736076825   19.00526563110666
C         8.98696383601457   -1.26134435893128   19.31382316600683
C         7.44209570997672    0.83896898097253   22.07247495589810
H         6.84791642644856    1.52917976004087   21.47423667253392
H         7.92408727636780    1.39578539082800   22.87191882326950
H         6.75672509754530    0.11603725571415   22.51394631610038
C         8.53208612051601   -2.07395865158924   18.13726754817014
H         7.90682773601138   -2.90340602266183   18.46801325043078
H         9.38361152454631   -2.47729580882361   17.59493191813356
H         7.94047913545012   -1.46450624759830   17.45437140672587
C         4.14581899706963   -1.89862244557174   15.15726804219387
C         3.04293702846814   -2.15676478504334   14.30784659355463
H         3.09423863194455   -1.89687389974273   13.25841719793941
C         1.93562581363657   -2.91369875556457   14.77031742255837
H         1.16225310543050   -3.21075934294152   14.07517013541933
C         1.86403927573010   -3.31713793904581   16.10647783564950
C         2.99524396644788   -3.10827056880927   16.94782927526845
H         2.98866886391531   -3.52566723809501   17.94812616842508
C         4.12087889105174   -2.45120636697775   16.46888552623972
H         5.00866516616878   -2.37267945041930   17.08705442631156
C         5.40730247464634   -1.23527022074875   14.65053938432366
H         5.98072337022262   -0.89361920390142   15.52224954254465
C         6.25440975497451   -2.26135763161856   13.89037775234578
H         6.50432260140732   -3.10334232131957   14.53318094264043
H         7.17860049347431   -1.80482068932278   13.54344064384189
H         5.70931924980428   -2.63794432478790   13.02717894325093
C         5.10902155959397   -0.01876391443477   13.77272483245939
H         4.71784774193110   -0.32131677981453   12.80462331339612
H         6.01832097581041    0.55398199751717   13.60479387956769
H         4.37227314291000    0.62224520332009   14.25803967891937
C         0.67660803932969   -4.06072489267974   16.64057666740861
H        -0.04701196063540   -4.25294629701953   15.85113130632598
H         0.19196489078429   -3.46623527592695   17.41780699819092
H         0.98608692191451   -5.00626184511999   17.08683202084155

