69
CSD_code = FOQLUV | q = 1 | S = 0 | Stoichiometry = C19H42BFeN4P2(1+) | MND = 6
Fe        5.44723551141157   10.20645853140492   14.41655883618247
P         5.59635906134930   12.24276454518994   13.72314943073346
P         5.45178064506290    8.43797237348832   15.64977756784156
N         7.19997978894850   10.52301362919015   15.17122728923138
N         7.17293160291083   12.64217489608423   14.23730420626847
N         7.00489557370165    8.53764983266080   16.34716824530444
N         4.13889723935715    8.84411405075813   11.66847797802713
C         7.86484046267505   11.66701038618732   14.90941469128647
C         9.18756828119268   11.85456481902992   15.30982995570875
H         9.72108501570766   12.74998562362797   15.04884901202232
C         9.81087418829485   10.86374076009053   16.04178575006829
H        10.83841176762988   10.97830187625840   16.34649175705786
C         9.10010317759791    9.73618375655380   16.40146446517510
H         9.56483780224353    8.97158218924863   16.99639205617473
C         7.78022861418745    9.60451510366229   15.97049450637806
C         5.70382379722553   12.78934530866582   11.93361539105154
H         6.02080358821225   13.83858390016359   11.92033468057880
C         6.75774480385020   11.94408132000937   11.22539721087329
H         6.94618603434183   12.33298229279249   10.22661001780761
H         6.41800182896126   10.91500890259155   11.13107690277223
H         7.69840475683356   11.94434780026213   11.77380960866717
C         4.35571279808915   12.67608545916870   11.23171096883625
H         4.47750365999629   12.84873151476725   10.16353425482496
H         3.65052049465641   13.41322928535070   11.60787031914847
H         3.93464603256346   11.68078299353535   11.37106253482936
C         4.49030996795983   13.52295120165997   14.50578960167396
H         4.50988322923704   14.45031323203979   13.92048851589353
C         4.94981998484698   13.77934776021444   15.93667554947956
H         5.86848060655443   14.35748646227795   15.97572879981767
H         5.11645893791632   12.82437708242278   16.43452612073987
H         4.18352645782941   14.32286737030819   16.48451957269317
C         3.07609018119344   12.94748273371601   14.51877159899270
H         2.72024955466040   12.71736596039008   13.51792076752764
H         2.38367523255294   13.65033029585138   14.97647205231341
H         3.07812790570955   12.02795672017757   15.10102917537315
C         5.50134546816867    6.66760208418173   15.03558331425432
H         5.76412186284524    6.02595916087844   15.88454842974646
C         6.58796824397789    6.55085390638351   13.97128957208128
H         6.75605973701792    5.50686745800815   13.71419550309274
H         7.52978636377426    6.97162673016627   14.32049102934612
H         6.29230793154935    7.07997217208776   13.06810440230077
C         4.15172189257811    6.22279086105224   14.48493301838353
H         3.78427768034490    6.93753844249708   13.74913931897547
H         3.41449563039494    6.12195853683643   15.27776130777121
H         4.25080164025712    5.25325227368216   13.99922732486569
C         4.27382716335439    8.36827441834898   17.09223623312837
H         4.22429336204204    7.34841790601572   17.49272583339630
C         4.73174126529880    9.34760671118668   18.16701627755672
H         4.96518960941432   10.30467612108778   17.70115671579658
H         5.61167733367265    8.99443176097693   18.69678065903881
H         3.93798515707655    9.50405565896614   18.89381213748488
C         2.90141255376192    8.78724275591345   16.57011155533751
H         2.97069108109883    9.79951199375514   16.17630611979002
H         2.16840099739693    8.77351874329768   17.37350936718872
H         2.55140709428048    8.13431727064176   15.77476600936779
C         7.75984040152716   13.95759265930558   14.05196590402250
H         8.56568137562167   13.93823495849058   13.31337074919085
H         8.15614155341578   14.34255115289428   14.99360002398295
H         6.98738851498148   14.64016674485420   13.70452714967169
C         7.49964011117292    7.58349070026695   17.32374991096041
H         6.67427758450014    6.95209625512810   17.64557257408666
H         7.89736562996454    8.09750768782007   18.20093315104306
H         8.28294534986206    6.94656938375714   16.90403236756282
B         4.70721348750624    9.40085503412159   12.78308704363062
H         3.14540464165420    8.79529422434344   11.50779005891282
H         4.66143206592571    8.43576444301356   10.90953375444807
H         3.99391121269227    9.88485031145614   13.66911951399921
H         5.92034550952459    9.43201567565479   12.91978258812961
H         4.89550190789204   10.81214583312678   15.57601169009697

