101
CSD_code = FOQQUX | q = 0 | S = 0 | Stoichiometry = C52H47PRu | MND = 9
Ru        5.31703654593686   19.40548295783706    9.77553597962099
C         5.26719147870576   18.10043399068410    7.90875224509558
C         6.46404865396796   17.71620002370928    7.17199884712238
C         6.94382589545331   16.40563144663281    7.30067404534446
C         8.09156763301721   15.99386100240360    6.65669387699811
C         8.79272670776702   16.87280827810003    5.84555404965030
C         8.32104249508641   18.16452666501885    5.68258911783807
C         7.17685630764678   18.58212430909598    6.33522710323922
C         4.60423365805033   19.34883127751675    7.74919329150070
C         3.60009155546896   19.69557450428655    8.66844831252576
C         2.33319434616954   20.14371877831454    8.59937435856647
C         1.49073813027334   19.95442628599744    7.40700142761728
C         1.78724668951505   18.96550460561364    6.47065905582551
C         0.98075557286005   18.78080151523582    5.36503463550675
C        -0.13833686662994   19.57473136797639    5.17383346070969
C        -0.44590469536263   20.55551652624624    6.10215408713773
C         0.35756564972369   20.74314684045840    7.21015581096483
C         1.72650550862402   20.77173160258127    9.70732971610976
C         1.18719906638880   21.35193854550833   10.62229938709274
C         0.54413832379865   21.98931041722861   11.70272455942126
C        -0.85070373173448   21.97633651839215   11.79092902287309
C        -1.48509865980569   22.59254836977644   12.85076313963302
C        -0.74554111253627   23.22797455248695   13.83646333457165
C         0.63787924979768   23.24872347611858   13.75420785579809
C         1.28172198280212   22.63723781722054   12.69688167281767
P         4.25723555858003   17.67539248302977   10.83440892792690
C         5.19796618966669   16.11813433961243   11.03126021880441
C         4.61557734311814   14.95504220314339   11.53157625389829
C         5.37074544523561   13.80412260547321   11.65649470629836
C         6.70629907854099   13.80039541896604   11.28122126792634
C         7.28606594431362   14.94986868889338   10.77207900690505
C         6.53146508665343   16.10330090546152   10.64665654948561
C         2.72108381757677   17.00241989213339   10.07808921530739
C         1.48531820894749   17.61070551148524   10.27580390839828
C         0.37990286757705   17.21349638981914    9.54588808986922
C         0.48654801110436   16.20191624219131    8.60755128014780
C         1.70321159309376   15.56752653095702    8.42470960399499
C         2.81096067419376   15.96378875443260    9.15111479840715
C         3.70433865551205   18.00208988037858   12.54772843805656
C         2.92341358938394   19.14098125014286   12.73552706223260
C         2.43386224170884   19.46047746242135   13.98809852897705
C         2.75656054370090   18.66896795254818   15.07858486771803
C         3.58018976595581   17.56896730511930   14.90960365963553
C         4.05136459626591   17.23146557483541   13.65201084161046
C         6.92401533727143   19.73948550315950   11.29853834323968
C         7.47692693560725   18.91761297720738   12.42856854787700
C         7.50781746839769   19.94419096756617   10.02081385209316
C         8.75987721897554   19.31470759937967    9.48838723632751
C         6.79652117777207   21.01583781502081    9.38124591786499
C         7.26718583885714   21.74471515324785    8.15630646474678
C         5.82519747335479   21.52559580738524   10.30503860670888
C         5.01912781516157   22.77723549047573   10.13267809715186
C         5.88468039696713   20.73950844244571   11.48595494021801
C         5.33575993068730   21.14448904914496   12.82034734540427
H         6.40299686608781   15.70922671341166    7.92668460684879
H         8.44157920084172   14.97878973824582    6.78129136396735
H         9.69112209804058   16.55224280885269    5.33926220090557
H         8.85053183432550   18.85438547359123    5.03976618054113
H         6.82496661419904   19.59032019941688    6.17607945428209
H         4.63346759857662   17.24607328599575    8.15327378862288
H         4.92274719608111   20.07409343950467    6.99703342084700
H         2.64832634771007   18.33070465830318    6.62172206914148
H         1.22308145091433   18.00764928823439    4.64958319315605
H        -0.76864155910119   19.42757501102200    4.30885892730262
H        -1.31790421053162   21.17844691377165    5.96065047567187
H         0.11598034682551   21.51088024275028    7.93150940280750
H        -1.42291430605239   21.47774013923222   11.02150593664191
H        -2.56396926692436   22.57799739519764   12.91215223909315
H        -1.24580489271920   23.70748644473432   14.66496217489888
H         1.21723873436743   23.74593910979182   14.51951719238197
H         2.36046007092722   22.65978015913435   12.62963746670401
H         3.57008932963010   14.95705840513192   11.81016919067249
H         4.91735405422469   12.90335161005936   12.04460834729442
H         7.29008893738074   12.89681598084083   11.37926553060828
H         8.32185943031697   14.94475560569504   10.46431532648805
H         6.95777478772791   17.00640875040074   10.22783330573330
H         1.37931938917454   18.39859263326495   11.00373447514491
H        -0.56747356550410   17.70704265326545    9.70496389636839
H        -0.37357672853006   15.90557259050128    8.02603528693053
H         1.79413904846206   14.76430357632966    7.70767151348249
H         3.74975727599225   15.44551315563095    9.00531891191843
H         2.73022624239931   19.78568907334828   11.88829639126405
H         1.81084149718464   20.33397619191044   14.11620108687749
H         2.38150535243624   18.91829185778019   16.06029496889544
H         3.85783111921328   16.96555992453563   15.76209153078259
H         4.69485219259093   16.37071769170363   13.53988518016985
H         7.99790866095984   19.57224621680798   13.13091234556485
H         6.68017563137907   18.40640405647400   12.97039349504258
H         8.18175272588352   18.16885106918306   12.07467645572152
H         9.57924345688486   20.03549214278904    9.53604443392299
H         9.04354929502398   18.44163979666872   10.07233115323171
H         8.64474888509289   19.00454439200224    8.44951874340012
H         7.90271855159380   21.11039288709232    7.54274755718257
H         6.43395390694060   22.10143812870107    7.55065657478867
H         7.85251417094004   22.61654365753833    8.45971953321829
H         4.01749586762463   22.65792438769788   10.54235751074482
H         5.50753986597104   23.60469511123890   10.65267186504616
H         4.92425223867303   23.04276418193887    9.08200252717532
H         5.25159726435415   20.29611776897092   13.49514857827317
H         6.01091841799389   21.87541202545221   13.27380548966835
H         4.35687938520113   21.60609358535390   12.72207372976342

