40
CSD_code = FOQQAE | q = 0 | S = 0 | Stoichiometry = C14H14N2NiO9 | MND = 6
Ni        5.40192969154646   10.83896904124427    6.99930391783532
O         4.75769100500559   12.10814403990790    5.74163939251617
O         3.72445096983802   12.21697877762053    3.77258908189059
O         5.40142274048948    7.61365050288409    6.99960815501018
O         4.43854682194881    6.03875601198272    5.22130128908047
O         7.54732321909076   11.25280216410747    5.89539788647593
H         7.18450308236158   11.84213242124309    5.22222766021844
H         7.89047252452063   11.83813449736516    6.58210159766569
N         4.77979448625156    9.54651845904400    5.81098696763812
C         4.20315213542964   10.07950889574752    4.71551620652526
C         3.66807968013421    9.29585701004599    3.71819347953983
H         3.22032608363644    9.78201196379184    2.86646928036342
C         3.71800693771019    7.91255604694178    3.83512684126529
H         3.30052607458716    7.29044499263785    3.06006728651801
C         4.30973770106711    7.35334964610222    4.95728911107766
C         4.83947659055542    8.23361524663258    5.94016383855446
C         4.20819809193686   11.60531320337895    4.70356283542198
C         3.92936785531111    5.11412122476588    4.28457567596992
H         2.84904615737651    5.22879324489918    4.15658941120066
H         4.14186812290635    4.13218780638976    4.70245805381809
H         4.42672032498048    5.21215323480021    3.31522939424434
O         6.05146651513064   12.10824001282761    8.25416454053283
O         7.08006014541270   12.21709252412657   10.22561962530635
O         6.36912637471218    6.03886839086842    8.77534505572912
O         3.25919285481409   11.27012085024487    8.10167748925519
H         3.62704408037876   11.86035926998887    8.77134082966191
H         2.92016004204359   11.85443284581141    7.41208573245921
N         6.02250467531876    9.54657697230773    8.18846030167466
C         6.59996176105413   10.07958671038187    9.28348964670473
C         7.13596563651939    9.29595661894617   10.28033382786989
H         7.58402453644243    9.78212772164625   11.13188830395297
C         7.08732085209215    7.91266585580645   10.16274934968199
H         7.50613554617217    7.29057962636564   10.93711070112207
C         6.49562218999941    7.35344333663994    9.04057783043947
C         5.96375807339906    8.23367464321529    8.05882434715934
C         6.59741672002668   11.60538618185785    9.29410537787492
C         6.88415192969735    5.11431520506108    9.70894763773465
H         7.96435863095953    5.23290019093993    9.83438361802917
H         6.67435320683858    4.13241064812118    9.28963213761873
H         6.38893593230627    5.20846396330938   10.67976628436264

