54
CSD_code = FOQSAF | q = 1 | S = 0 | Stoichiometry = C23H26AuNOPS(1+) | MND = 4
Au        6.41141700247810    4.94317884110033    9.25607290168975
S         8.20271205103388    6.05684067316686    8.26591196303070
P         4.54023653102479    4.08134486280211   10.38519777987723
N         7.27456913362018    3.09375616625765    8.36649151597137
H         7.23882652851010    2.28709578907805    8.98660987378575
H         6.73892965150674    2.85060215237346    7.53310701201469
C         3.51268792735832    3.12935547853484    9.22496269369818
C         3.56183791167695    3.51890691272281    7.88774528196949
H         4.22290907410679    4.32946217847635    7.59686859706425
C         2.76649811607055    2.88910466774654    6.95059238174213
H         2.80140564021225    3.19774627261610    5.91685128208166
C         1.92183991393914    1.86101759991147    7.34311177641746
H         1.30175720319089    1.36623735399563    6.61189713311734
C         1.87119899622856    1.47098267769208    8.67117216878317
H         1.21022472111914    0.67389811327979    8.97540719968968
C         2.66147432318966    2.10194970113005    9.61693744187684
H         2.61507740122238    1.79744822233268   10.65293759513233
C         4.44249922737281    3.16380490631850   11.93429794590774
C         4.98495443590307    1.88000696295159   11.96149795864096
H         5.41355389169203    1.46204474208652   11.05867914361263
C         4.95605910671817    1.14738185327888   13.13298497370180
H         5.37033169861565    0.15093894540848   13.15751274740207
C         4.39270960055307    1.69505724270083   14.27620650656348
H         4.36849971369065    1.12156901702330   15.18984429604945
C         3.86236573003503    2.97570793509935   14.25020297648469
H         3.42628344085798    3.39652408667566   15.14340287159916
C         3.89205867105728    3.71973245246948   13.08394104295829
H         3.49238531747930    4.72354782079546   13.05976864132043
C         3.59812611631786    5.60985180025239   10.51947924445505
C         4.29517148421950    6.77328622905196   10.19336465293575
C         3.59374226454536    7.97138593782885   10.11251388441443
H         4.11603927203909    8.88021505830131    9.85414460764293
C         2.23294457379966    7.99748814261934   10.36836454633603
H         1.69749538668027    8.93162159196747   10.29943896592260
C         1.55291674097849    6.83645580374101   10.70718558114680
H         0.49176470127006    6.86766224994192   10.89901888419257
C         2.23122395819726    5.63290600064784   10.77428435601049
H         1.70954746791476    4.71375576824054   11.00434875591074
C         5.77684027464603    6.73633112271788   10.05738176889483
H         6.14977515635648    7.58449628635777    9.48597233650976
C         8.73824571087986    4.67118151260063    7.21167726028792
H         8.10264495540154    4.64484680900793    6.32521922429735
H         9.75996801034713    4.89881948770556    6.91233529075713
C         8.67480746120886    3.36535375634700    7.97699837570987
H         9.26781014154370    3.45189520071453    8.89016017241059
H         9.07846640828546    2.54930135635156    7.36791668428854
C         6.43968467878926    6.69784139162169   11.42673924261133
H         7.50548359328835    6.94393387450871   11.33748267136294
H         5.96529963613911    7.42261425081276   12.10481459878863
C         6.85630793607895    5.21001690928518   13.21299840119232
H         7.92372377763926    5.44957506934639   13.19286920836923
H         6.72069394428388    4.16521313606237   13.48325326567412
H         6.36014979914642    5.84638428015387   13.95187126651546
O         6.28522358954784    5.38292334594153   11.93165305112647

