71
CSD_code = FOQTOV | q = 0 | S = 0 | Stoichiometry = C26H30N6NiO8 | MND = 6
Ni        6.36417390289417    6.92857863881000    3.43754704388387
C         5.54246358414087    6.17867511478113    5.94863095101455
C         5.22304536603086    6.18649364413247    7.29785678872869
H         4.69090847562796    5.33991191791089    7.70235553312169
C         5.58255832521977    7.28929171773280    8.05518403239206
H         5.34599159545609    7.33845299340772    9.10723561167792
C         6.22500634239712    8.34624460669145    7.43717409477307
H         6.46929839342801    9.24934746471689    7.97312441203252
C         6.53646002306888    8.26158076117338    6.07607912442781
C         7.09562614518787    9.39703611569999    5.36598445559103
C         7.99598090548600   10.64480488642356    3.61983054397144
C         7.20265965045960   11.56183769972210    4.57687131691555
C         7.70514387416063   10.81716445553288    2.13668080585276
H         8.20823471845359   10.02361676758951    1.58813179555215
H         8.08835342486358   11.77544818427968    1.79670651827115
H         6.64563739733608   10.76571885674266    1.91447995148869
C         9.51600602689407   10.70515639352831    3.84162559031535
H         9.76538327744683   10.58145508771313    4.89321768809293
H         9.92040729722178   11.64767195451493    3.48511393177817
H         9.97896942573109    9.89291735049722    3.28572633864816
C         5.80013609189598   11.90107757724440    4.06163421098403
H         5.28310630502924   11.01012349604938    3.71159118775591
H         5.85330363711801   12.62003235451420    3.24985718197770
H         5.22275669284347   12.33592585368683    4.87495707386071
C         7.91069701748737   12.82777714615138    5.03457560903374
H         7.28367976739781   13.32826768015735    5.76844137640953
H         8.06632184330023   13.49295497143213    4.19052937695181
H         8.86580694117465   12.61160800448529    5.50324539767453
C         5.04910007657179    5.06079738435089    5.01657322006397
N         6.22019810294568    7.16522431845271    5.36603919720342
N         7.58986351020730    9.31722364159487    4.10659499289991
N         6.97269161766737   10.66567999139441    5.73991539580532
O         7.85902291819933    8.22108758324182    3.48157661018558
O         6.59828703693432   11.11778483206706    6.84928427579450
O         5.13938502702909    5.33747928811713    3.78274132624536
O         4.62271484788932    4.02466575805794    5.49687246940125
C         5.54248458545962    7.67848071490446    0.92644725324118
C         5.22304609912060    7.67064418708046   -0.42277267452444
H         4.69090683573201    8.51722099157884   -0.82727974513751
C         5.58255659602421    6.56783811418644   -1.18009374444382
H         5.34599879713781    6.51867498216648   -2.23214522494369
C         6.22502309051499    5.51089831634178   -0.56208243978381
H         6.46932340653574    4.60779625371940   -1.09802857008387
C         6.53648536675146    5.59557680838007    0.79901061730104
C         7.09564144010667    4.46012483994145    1.50911755640454
C         7.99598937969520    3.21235881416085    3.25527387504417
C         7.20265543523333    2.29532480509683    2.29824571745078
C         7.70516639424143    3.04001824036365    4.73842822413654
H         8.20826298771450    3.83357334983634    5.28696152141173
H         8.08837014456977    2.08173662644267    5.07841706482524
H         6.64566058797478    3.09147539024325    4.96062806493063
C         9.51601036345507    3.15199380714600    3.03346260664234
H         9.76536904750912    3.27568205811989    1.98186487625313
H         9.92041451048425    2.20948041275815    3.38997675712279
H         9.97898661144634    3.96423811460583    3.58934338222908
C         5.80013420802843    1.95609698741294    2.81349539536635
H         5.28311876075304    2.84705987094188    3.16353657636603
H         5.85330135318976    1.23714578361292    3.62527633072820
H         5.22274321838338    1.52125166634420    2.00017879609186
C         7.91067343456391    1.02937335998125    1.84054359304797
H         7.28364494652965    0.52888491473814    1.10668634541257
H         8.06630660548155    0.36419607790675    2.68458888443288
H         8.86577728577683    1.24553509712958    1.37186021003065
C         5.04910310365650    8.79635203763363    1.85852006015079
N         6.22022787397137    6.69193908193257    1.50904113227811
N         7.58988417545816    4.53994181139429    2.76850159819852
N         6.97268954371166    3.19147855363139    1.13519832586244
O         7.85904796069598    5.63607200432346    3.39352454879103
O         6.59827540373932    2.73936882579551    0.02583416423304
O         5.13938398282286    8.51965575694996    3.09234206707484
O         4.62275687834786    9.83249685060226    1.37821142306917

