69
CSD_code = FOQZOA | q = 0 | S = 0 | Stoichiometry = C34H28N4P2Pd | MND = 4
Pd        2.09369402081748    2.14769633185088    2.94568261635331
P         3.83284578598126    1.85165954644917    1.58267831453320
P         2.46338534603471    4.22562823996311    3.66338059823186
N         1.56626263845088    0.27365388615866    2.03041369318916
N         3.74374143704557    0.29335159717683    1.12283669472509
N         0.59875308058486    2.30407719696909    4.48301436378476
N         1.17023013979142    4.59131739976457    4.58016471469990
C         2.56156653964198   -0.30285290394558    1.29524612005963
C         2.33602026963016   -1.56776235655623    0.70010703535191
C         1.10625462015597   -2.15832293651215    0.78306392822570
C         0.07030636501737   -1.49030473333381    1.44366675050156
C         0.35617640578416   -0.28756669015814    2.04604215961420
C         5.54239979001106    2.08682591040340    2.12643577363223
C         6.11567824984466    1.06684245310731    2.87902084159973
C         7.37209289533075    1.23233687176604    3.43017417662325
C         8.05752213341301    2.42191080726907    3.24307606603792
C         7.49246904708095    3.43777899875906    2.48886253607154
C         6.23754480983338    3.27440100799351    1.93180126930996
C         3.56216795235019    2.90716006857446    0.11605811931607
C         2.29470107894712    3.47193506922441   -0.00354136545166
C         1.98994779224353    4.26723813316939   -1.09179119148934
C         2.94906192249993    4.49538749793234   -2.06647332010338
C         4.20065435013636    3.90974385025301   -1.96545127023600
C         4.50895689132912    3.10939457782925   -0.87935803959994
C         0.42578437123423    3.56071302811887    4.98788152730512
C        -0.57205005452565    3.77908537192568    5.96889717647377
C        -1.29218329595051    2.72874228864871    6.46509836177586
C        -1.01676800108518    1.43543739505125    6.00971767085646
C        -0.06875611841600    1.28404558021885    5.02495535365109
C         3.94400529307640    4.17850750586090    4.73303149224094
C         4.35959568081289    2.91040076651259    5.13217822930537
C         5.45689372080019    2.76819391668237    5.95978959287792
C         6.14230132463660    3.89316578923998    6.39152781224159
C         5.71575229823598    5.15684718716789    6.01692638663626
C         4.61235966594410    5.30450420129931    5.19452063589535
C         2.64875172255585    5.61521204701330    2.51975703445442
C         1.48824503940718    6.17848257739822    1.99957017520429
C         1.56762090228200    7.15353078957199    1.02315610687312
C         2.80523942767023    7.56243062308653    0.55324192680579
C         3.96366654132095    7.00731461156053    1.07307666564737
C         3.88875441853599    6.03430718279356    2.05236384383144
H         3.15677439135508   -2.02069867855651    0.16848678244493
H         0.92705128922399   -3.12056614008256    0.32570358911940
H        -0.92466466932011   -1.90168584398234    1.48895800232730
H        -0.42446810838214    0.26551547624966    2.56080654227326
H         5.56305841382226    0.14623706880650    3.01060566222432
H         7.81854618087554    0.43754301130363    4.01040533031433
H         9.03572275827953    2.55660318603279    3.68098465336160
H         8.03332035922077    4.36103421894231    2.33657997068484
H         5.79572041739816    4.05765102118769    1.33258683490692
H         1.54296657256112    3.27992892660101    0.77933466103954
H         1.01078416127866    4.71477030391732   -1.18093260743885
H         2.71660533297086    5.12579066825134   -2.91218249437180
H         4.93834404309889    4.07764394773844   -2.73719667669391
H         5.47808050534572    2.63731004593896   -0.79610574305195
H        -0.71724382747444    4.78955867821844    6.31444966858943
H        -2.05192199016043    2.88967446876452    7.21619577794492
H        -1.53125609614788    0.57721073696537    6.40965817138491
H         0.18109772564203    0.29392676174777    4.65421959422254
H         3.80571256441463    2.02605342827343    4.77719588878510
H         5.78431702980026    1.78516430884321    6.26485385257749
H         7.00785719335873    3.78374587024817    7.02841696166058
H         6.24597068980725    6.03042428414777    6.36789441502161
H         4.26455432924628    6.28673739504505    4.90673785931068
H         0.53321523430269    5.84512437077355    2.38231615802319
H         0.66590856565625    7.59354248257961    0.62225563727386
H         2.86843313940715    8.31784092262955   -0.21632482161638
H         4.92781721812672    7.33422570986985    0.71049031855987
H         4.78655007783668    5.60194268333003    2.47000543405573

