57
CSD_code = FOQZUI | q = 1 | S = 0 | Stoichiometry = C24H24CuN4S4(1+) | MND = 4
Cu        9.06117129072976    6.99783770433503    4.41274721893552
S         9.54477833277891    4.20518116430850    6.19011434209131
S        10.51925382216202    9.77916310999308    3.28001081187631
N         7.28607087066427    6.08678801743773    4.92521637402130
N         7.94624297788430    7.90339966920194    2.93696335709212
C         7.84028960807316    4.34094028652249    6.49867597924558
C         9.29840214892513    9.69630188548309    2.04654797975576
C         6.71128550546153    7.17229093376342    2.84247326251324
H         6.89617965464569    6.24770092267872    2.28463566218011
H         5.93436382854082    7.74433510558909    2.32032793014244
C         6.96089537889432    5.19649390594032    5.77937840725760
H         5.90281802810350    5.02200741654331    6.00819194912013
C         7.45594019249926    3.46865373751258    7.49648431762191
H         6.44125573897824    3.38659672509287    7.84279895830835
C         6.23868551669945    6.80543606156017    4.24981594127540
H         6.03639185392592    7.72998053156098    4.80201124414271
H         5.31073006680643    6.22307893371453    4.19658022622441
C         8.17429533056261    8.82624872822519    2.08607912924285
H         7.44882258657071    9.02013095697983    1.28698350545364
C        10.70257238771241   11.38062767099858    1.28069631519727
H        11.05789129714276   12.14811614671158    0.61791260671330
C         9.54542756415859   10.62424853148883    1.05534136386095
H         8.91047937203217   10.74522723957014    0.19601827645354
C        11.32757454649719   11.03644269307223    2.44272549395993
H        12.22179436450335   11.45743845000299    2.85853393294966
C         8.51777907868144    2.71451038589585    8.01201091294908
H         8.41384396320001    1.98746560811657    8.79633535631965
C         9.70201803218974    3.00289740554888    7.40058577581478
H        10.66385663618978    2.56931766012164    7.59200864945495
S         8.57751209795472    4.20493785411636    2.63561974600899
S         7.60297662733749    9.77890431030435    5.54571589461697
N        10.83624717177530    6.08673607138918    3.90020603632824
N        10.17616038164982    7.90334740844816    5.88849103512045
C        10.28196470717534    4.34077271588497    2.32689397210965
C         8.82395837818623    9.69613959467582    6.77905676801168
C        11.41117945710077    7.17232590510354    5.98285629175503
H        11.22640813171185    6.24773204404005    6.54072760022241
H        12.18811680869411    7.74442918477423    6.50491190012928
C        11.16138336055001    5.19640149980654    3.04607472780987
H        12.21944644429408    5.02196493613674    2.81715650813205
C        10.66626386490748    3.46847165174413    1.32907862373875
H        11.68091814083136    3.38645361980378    0.98267130269560
C        11.88365810583321    6.80547451328467    4.57547152311361
H        12.08583027779122    7.73001881119985    4.02323025069963
H        12.81165814929219    6.22317960876018    4.62862467081114
C         9.94811739850248    8.82616022551621    6.73941900490270
H        10.67365940110278    9.02009216637792    7.53843951327561
C         7.41974412374609   11.38036662614632    7.54503757587445
H         7.06443378640326   12.14783115557211    8.20785243611816
C         8.57697226903993   10.62408164050171    7.77027751573553
H         9.21199502096993   10.74510662772925    8.62953990644495
C         6.79465363517514   11.03613656728984    6.38306881471515
H         5.90036117377118   11.45706500387276    5.96734854405552
C         9.60442238392781    2.71423238164518    0.81369579100524
H         9.70832436514903    1.98715679204130    0.02939451723941
C         8.42022783018796    3.00258391582598    1.42522257731112
H         7.45839653171763    2.56893958004379    1.23391167183328

