72
CSD_code = FOQZEQ | q = 1 | S = 0 | Stoichiometry = C34H30ClN4P2Pt(1+) | MND = 4
Pt        0.65432201512205    3.35384738337346    1.94216056653162
Cl        0.65595653236935    2.65301543243669    4.14974112734605
P         0.55803680229046    3.81083023943400   -0.27718391361435
P         2.88657279799416    3.17460327813867    2.25131465112225
N        -1.40780433172713    3.63639016636213    1.83183475478284
N        -1.07173917757746    4.29430916120687   -0.37376176308921
N         1.67440886873863    5.56273432203474    3.02178111608390
N         3.39950201045625    4.13751881571209    3.53805993495449
C        -1.92983905406948    4.08029858538432    0.67746001944308
C        -3.29725075676962    4.34074522020702    0.55095765249133
C        -4.12407989928170    4.14144098834460    1.63598860676984
C        -3.57146059591081    3.68459647003778    2.82723455409109
C        -2.21498788504738    3.44529900273132    2.87882299942058
C         0.66267811183990    2.38128875010336   -1.38867878849554
C         0.24031958344995    2.45567527254990   -2.71358570221661
C         0.30260983591530    1.33103750421509   -3.51559051367060
C         0.78378142850013    0.13557338812513   -3.00244940328447
C         1.19781061364641    0.05772406337988   -1.68213137604013
C         1.13296734245525    1.17845845399780   -0.87423194005160
C         1.38715159269092    5.17503335108444   -1.12774529270895
C         2.23169485124366    4.98771492978907   -2.21478369328695
C         2.85485934997097    6.08083743700869   -2.79104754674691
C         2.65602271074333    7.35075816963928   -2.27554319095604
C         1.83255482039844    7.53577481602381   -1.17482898306919
C         1.20214108728676    6.45053487718715   -0.59957463256489
C         2.60948594430976    5.21111599895187    3.90400819764650
C         2.81353260721870    5.89530477729368    5.10305879964531
C         2.00687833882799    6.97813671756180    5.38434836787949
C         1.02978216509232    7.34861722261434    4.46698086042610
C         0.90635939286755    6.60993175916880    3.30773414954796
C         3.89027980385254    3.79224007468844    0.86521126185543
C         4.28132553361739    5.12459835025667    0.80559727838890
C         5.04402690062257    5.57276299845590   -0.25752693382350
C         5.41326450049341    4.69769785889604   -1.26589074755503
C         5.00679773024756    3.37352093589548   -1.22027329642466
C         4.24184796042675    2.92118881689771   -0.16118100852186
C         3.63521551355558    1.57885840266219    2.64583938658285
C         5.01174056591034    1.50683782953205    2.84706822829918
C         5.59246114713691    0.29291468510792    3.16239123161312
C         4.80735194872991   -0.84596401209965    3.26957468089724
C         3.43967283707569   -0.77507478987602    3.06086456261916
C         2.85032353833669    0.43737868204252    2.74759735629914
H        -1.48686980224523    4.58690891936021   -1.25040776255124
H        -3.68647932726623    4.69289927122105   -0.39130186259871
H        -5.18176484883222    4.33667167815356    1.55663875521859
H        -4.18194074509056    3.51499271018918    3.69774030282848
H        -1.74426485107998    3.08392544935306    3.78447474063695
H        -0.12779412508813    3.39126169588913   -3.11349729596936
H        -0.02367084024379    1.38510100334603   -4.54304525072181
H         0.83179037633891   -0.73774483909170   -3.63439663299174
H         1.56568478951971   -0.87562295238992   -1.28406680398522
H         1.44220692881026    1.13969283659933    0.16514170358058
H         2.39944846506566    3.99591459680168   -2.60786622678734
H         3.49910581558669    5.93916567816275   -3.64510040640739
H         3.14589319605738    8.19853802647793   -2.72924777132138
H         1.68558112246170    8.52512325154762   -0.76905455794523
H         0.56187797474867    6.57386851004897    0.26266721533934
H         3.91214486216771    3.68827047622808    4.28859228560611
H         3.57920119459748    5.56955054702457    5.78931325376774
H         2.13182171481830    7.52556779157623    6.30568056863050
H         0.37865737068553    8.18599017399092    4.65532305334533
H         0.15753416237545    6.86000664375715    2.56826487017727
H         3.99439542937173    5.80151173278901    1.59623723524087
H         5.35696368309591    6.60510096824635   -0.29670319206951
H         6.02158255880587    5.04650676719743   -2.08617691004725
H         5.29422481729206    2.69130941271930   -2.00620406321344
H         3.93352845959664    1.88557812003201   -0.11310587200972
H         5.61550095767282    2.39936038162019    2.74769897211952
H         6.65789050379897    0.23207764849972    3.32425750518397
H         5.26548829383871   -1.79090750807410    3.51821284469506
H         2.83197964002131   -1.66275279883201    3.14770020474736
H         1.77950714002328    0.51172741969404    2.60190947917989

