44
CSD_code = FORBUL | q = 0 | S = 0 | Stoichiometry = C10H24B9Co | MND = 9
C         6.85773228432696    1.35423956493561    0.38980675778553
C         6.43119896903449    2.52538777973262    1.09422717702046
C         5.71749569840529    2.10674497470379    2.26227424265172
C         5.77699996206904    0.69884185046287    2.31492746382489
C         6.48002760910838    0.23442791891502    1.15906108311395
C         7.44856961836511    1.34181072942245   -0.98474475054693
H         6.65487130135603    1.39998485021215   -1.73229451271669
H         8.01489903028475    0.43153578792693   -1.16256143430901
H         8.11247242177990    2.18989375648465   -1.13066217883173
C         6.45704986247489    3.91858780322741    0.55194384502657
H         7.32758007769285    4.07617855685703   -0.07887806128166
H         6.47887422956994    4.64975696495029    1.35545521310341
H         5.56371787417078    4.10030406095339   -0.04896075514940
C         4.92446452362297    3.00593811854230    3.15723134913867
H         3.94315443062792    3.19732427267995    2.71840178530421
H         5.42550463553600    3.96092402671840    3.29284582955995
H         4.77556395156631    2.55660399423539    4.13540784681101
C         5.08442986453596   -0.19077967863965    3.29799636019233
H         4.88538390020007    0.33212661807029    4.22995013821896
H         5.68420259673518   -1.07163238504758    3.51867322579830
H         4.12975580001649   -0.52838836132069    2.88908943211736
C         6.61880383682029   -1.20522493655867    0.77686464891770
H         6.88282086099700   -1.81600986458315    1.63812238773329
H         7.38201318244136   -1.33791252911855    0.01474317063415
H         5.67347369201184   -1.57873600748456    0.37834862446680
B         9.49804902415259    0.76912239388612    1.98707039839130
B         9.60135867294812    2.52032931373307    1.92424313659756
B         8.73178178825281    3.10441805805339    3.34922938332262
B         8.15970773612739    1.66770689109167    4.18061185294257
B         9.56576976768270    2.35142831958123    4.75643079652418
B        10.50742548887421    3.02272651054962    3.36868640960508
B        10.90225109080629    1.45308682583568    2.56647715560855
B         9.49994685168729    0.58823893553152    3.75182044240845
B        10.94715899990598    1.57815643757806    4.22959784506261
Co        7.77930437068309    1.56390958837146    2.30189358455764
H         9.50989549089185   -0.10283260338847    1.19582007530742
H         9.69988884542600    3.11760019346777    0.90860515932092
H         8.17185721225705    4.14389617433850    3.41257896758525
H         7.25629445069514    1.41101382691948    4.89094511323080
H         9.52414895552344    2.60952214946927    5.90678074965352
H        11.18514851262762    3.98817697172535    3.38626447420385
H        11.87612145917682    1.02878302412000    2.05343011937493
H         9.50187681336797   -0.50761443939927    4.20221890660362
H        11.83385425516058    1.22720356225565    4.91482654111276

