89
CSD_code = FORDUO | q = 0 | S = 0 | Stoichiometry = C35H43CuN6O3S | MND = 2
Cu        8.46515358619300    1.88996347948603   11.38608484028770
S         6.17144297149284    2.70472556203959   12.09998731611665
O         5.30330152695439    0.62801014894271   13.73336280557247
O         7.20202987570013    3.44824866182792   11.36119462078442
O         4.85493383775098    2.78889259731693   11.55490819543132
N        11.33517916766336    2.14515391943639   11.73159022909294
N        10.82813628072272    1.33577047864763    9.81981960586221
N         6.80775116629863    1.20149533429564   12.12247945374088
N         6.78990737078619   -0.91558417727572   12.93030613698706
N         6.50814800375893   -1.88608347834199   13.55245076272751
N         6.39736742575557   -2.89246172472889   14.03440044673933
C        10.28849599702542    1.79429481094422   10.96175526120519
C        12.51885918442924    1.90966977270144   11.07958488213055
H        13.46783687726586    2.12393532008286   11.52551273251598
C        12.19721171130244    1.39614412651814    9.86957972772591
H        12.81182343120257    1.07512938141535    9.05442975502909
C        11.21694769273666    2.72730869303815   13.02289132917785
C        11.20701385434140    1.89599570826381   14.14555565994209
C        11.10098225771634    2.48908011554718   15.39620171822455
H        11.08424677286568    1.87305081886778   16.28092928189849
C        11.01363813622059    3.86291765055644   15.52181080338021
H        10.94735962169966    4.31038303884414   16.50295585739507
C        11.00911735231212    4.66697402017112   14.39891187904301
H        10.92366606211167    5.73623066922757   14.51184890418723
C        11.10905506651598    4.11543410721538   13.12800998054526
C        11.25058362804210    0.39410807970371   13.99991590209916
H        11.62070411177768    0.14580383683932   13.00059552177415
C        12.18025799362881   -0.26770252440711   15.01850793857807
H        12.30724061069707   -1.31847864274597   14.76925337730865
H        11.77096211582024   -0.21129617955999   16.02323368764167
H        13.15830081410459    0.20895993760304   15.01406468961277
C         9.82535741130589   -0.15308480328492   14.12381833156585
H         9.40195885863135    0.10184824812432   15.09286604495089
H         9.82795265850208   -1.23523338408467   14.01948669386939
H         9.19101742728664    0.27126487170114   13.34286438628002
C        11.08489742194737    5.00477477608442   11.90887240385808
H        11.23478463414670    4.39373735246855   11.01460963957248
C        12.21273577425960    6.03905471584823   11.96297803827707
H        13.17678768660725    5.54934839156912   12.08699880574971
H        12.07143614308401    6.73147347031325   12.78834254444894
H        12.23404027522297    6.61244267491167   11.03916613698998
C         9.71874037972115    5.68284833177640   11.78151260040564
H         9.50184785028525    6.28809264515685   12.65832585712051
H         8.93220087315390    4.93939427164257   11.66910544510593
H         9.70778432365560    6.32894045976629   10.90685431805625
C        10.06891685917392    0.88227302566384    8.70661025032528
C         9.72099692088192   -0.46679219793338    8.62844462240248
C         8.96725725159945   -0.88342669089748    7.53963246765559
H         8.67403047743048   -1.91781287846403    7.45630899839606
C         8.57571608467381    0.01471005088425    6.56570280443430
H         7.98442161314199   -0.32446979539528    5.72821522772902
C         8.92855280834134    1.34685932789476    6.66307104322004
H         8.60413530004514    2.03802248347374    5.90153788056768
C         9.68459724072880    1.80618826360369    7.73311065692173
C        10.10011608794725   -1.43732060212418    9.72018442579635
H        10.82592400217359   -0.96042361386712   10.38542439929132
C        10.74378207838960   -2.70811415818117    9.16205962797454
H        11.58636561770488   -2.46112957914844    8.51933012760588
H        10.03114728911827   -3.29155991712932    8.58629852770846
H        11.10318027760607   -3.32845365102231    9.97975517548103
C         8.85332682114987   -1.76469309176990   10.54495591937192
H         8.10683464953112   -2.25921048822964    9.92898919945965
H         8.42021512865487   -0.84817613735530   10.94704472806320
H         9.11026636142729   -2.42244346905374   11.37163026474852
C        10.03729531415053    3.26907138520358    7.85493464577561
H        10.79249875797128    3.39056381881044    8.63742740153550
C        10.62818440044527    3.82286036374337    6.55611930949136
H         9.88327327752717    3.85718742732440    5.76627226846708
H        11.46006705864511    3.20736389898649    6.21936575206736
H        10.99153831523777    4.83506204511561    6.71876168052645
C         8.79331168928914    4.05832848554370    8.27153755053612
H         8.41098274150927    3.69901718033337    9.22633584420397
H         8.00876087692690    3.95365426574782    7.52630224473302
H         9.03706182088349    5.11352343775923    8.37123878801904
C         6.21333567345151    0.36786158146801   12.97100753340535
C         6.19325504938453    3.30737427448244   13.77888691808957
C         5.01610481780964    3.68051304883868   14.39601433757280
H         4.09720080410984    3.61691060732512   13.83613553234021
C         5.04943192186773    4.10508898201388   15.71112422839253
H         4.13371046853425    4.39382892694083   16.20593135001691
C         6.25123503885902    4.15336833737250   16.41247965824958
C         7.42296519479927    3.77396445918490   15.76805519240373
H         8.36375267201471    3.80323839808511   16.29767386414221
C         7.39836977819453    3.34893398718937   14.45115173704113
H         8.30561803440552    3.04922458905269   13.94500427300633
C         6.26815159326607    4.58525201838138   17.84705833099703
H         7.27929978719604    4.81066798808498   18.17591039060612
H         5.87209519155541    3.78915848395566   18.47726200482412
H         5.64402062959069    5.46447956359673   17.99186826738635

