82
CSD_code = FORFAW | q = 0 | S = 0 | Stoichiometry = C35H41CuN4O | MND = 2
Cu        5.88112715268293    6.32205544653914    8.55021879354745
O         5.62671112110305    7.59392178350523    3.49349237384370
N         6.70581668311635    6.72884871548655   11.35279093487416
N         8.31125828057108    5.96883133903370   10.15558377751378
N         4.83620699986577    6.30539243630337    7.09936261940551
N         4.08299767718993    6.58392289273676    4.84029898248611
C         7.01297489689816    6.33547527356186   10.09812985011631
C         7.79153931925865    6.60999320395014   12.17866791223615
H         7.74831567033380    6.87201011337208   13.21552193582015
C         8.80622157054661    6.12960399365719   11.42165959631618
H         9.82026110797913    5.89356125370252   11.66987594870811
C         5.43040683705142    7.21413102219713   11.75461462382643
C         4.42944137709324    6.29918339724764   12.08317498160701
C         3.19159547236673    6.79954188217567   12.46517917172651
H         2.39561521906986    6.11757710189281   12.71959413829006
C         2.96249546361264    8.16051589637928   12.51329476011434
H         1.99204759930465    8.53233593649708   12.80613506094691
C         3.96604494965594    9.04992242937997   12.17845079705434
H         3.76646390563241   10.10892042885147   12.20732689154947
C         5.22031224688990    8.59477154066338   11.79731302293961
C         4.65953210704500    4.80864949053357   12.00587518596761
H         5.70555487380557    4.61784483495131   11.74735275359153
C         4.38160074139651    4.13587942615845   13.35183409321731
H         3.33461950018333    4.22735396312126   13.62727128146510
H         4.98382200214137    4.58790981906826   14.13758646580039
H         4.62648016830668    3.07773564268142   13.29477525332647
C         3.79098111431852    4.20657628272152   10.89908298776797
H         4.00932299322485    4.68837674399854    9.94724275479829
H         2.73509810255359    4.34127580689909   11.11795544396898
H         3.99109290730700    3.14205640720176   10.80258294141030
C         6.30370622758419    9.55934909650226   11.37408217816901
H         7.27289771882261    9.05172084006213   11.42118407386188
C         6.38704547980465   10.78575493050086   12.28368362988234
H         6.44005027450932   10.48686514991313   13.32854909391260
H         5.52657359873248   11.43561725573884   12.15187552612506
H         7.27870866130710   11.36053317142977   12.04357180438442
C         6.05548547184188    9.97539484154930    9.92083048737642
H         5.10190312317830   10.49003091041851    9.83181214339916
H         6.03218815867040    9.10083846454069    9.27185005623608
H         6.84393645882705   10.64224242792042    9.57957465532609
C         9.05545099448861    5.47299694556060    9.04839873719601
C         9.17536073283374    4.09033910143628    8.88616016434363
C         9.89067706334632    3.62398163758054    7.79256018490835
H         9.98904357002334    2.56286829868771    7.62948110698124
C        10.47241138852120    4.50485150739096    6.90012144776354
H        11.02321583673230    4.12447254994839    6.05307515225034
C        10.34283378967793    5.86774772679468    7.07977705947672
H        10.79236632366523    6.54257811858256    6.36880198425570
C         9.62947999728873    6.37935063654707    8.15606903849065
C         8.48734155995457    3.13461023599892    9.83339821063076
H         8.26670438066269    3.65680987474422   10.77051436752403
C         9.35389355240197    1.92335651209437   10.18006062342449
H        10.34279334589674    2.23863810638403   10.50629982637275
H         9.46519386670180    1.25958585045739    9.32735640580676
H         8.88909280986924    1.35769494038020   10.98460933290947
C         7.15905976262447    2.69272808720670    9.21132128292431
H         7.33608970301770    2.16494877580445    8.27741305699795
H         6.53073269983818    3.55711387115039    9.00005931688725
H         6.62657248945680    2.03041048550339    9.89019954715026
C         9.47438801758036    7.87179622022482    8.32639760357517
H         8.91274908386393    8.07472946353318    9.24394229053510
C        10.83943989567563    8.55187637155352    8.45563507461126
H        10.70778750195320    9.61500661485196    8.64349277952572
H        11.42070535107059    8.43737348506371    7.54496673124120
H        11.40544826555510    8.12256241863814    9.28045529088032
C         8.67843434180431    8.45322925878390    7.15584179227538
H         7.70813085387395    7.96582348305295    7.07753068939769
H         9.20402256862091    8.31198058427966    6.21574221383758
H         8.51789722926668    9.51858376378551    7.30390475273787
C         4.59863418361738    6.50354174608136    5.96195047990750
C         4.53127031292581    7.08183983067234    3.66414738250888
C         3.53030553395759    6.94270235224590    2.56798463548359
C         3.85090534044194    7.42835584911267    1.30406232347652
H         4.81644355009388    7.89119361494706    1.16096007495709
C         2.94780880034589    7.31612157943399    0.26432387862241
H         3.20024914070828    7.69517166597270   -0.71584489255749
C         1.71693676958339    6.71695402974315    0.47918769622344
H         1.00952022256829    6.62853103452239   -0.33332868721862
C         1.39213521447658    6.23107994488345    1.73584899446574
H         0.43138334085973    5.76381977967910    1.90072495646460
C         2.29315784644087    6.34228970108821    2.77829290395852
H         2.05057953433648    5.96723235281532    3.76134520562370

