43
CSD_code = FORKAZ | q = 0 | S = 0 | Stoichiometry = C14H22N4O2Zn | MND = 4
Zn        2.31835717605902    0.94707770878364    3.40077224531081
O         1.22066956452043    2.18545950107187    2.31115353589324
O         0.24219193597797    1.11727933781118    0.61565684073930
N         3.41143714441961   -0.25644545235512    1.90944995007122
N         2.81487342031046   -1.31795582459495    1.35134600806980
N         0.90201404867592   -1.72527951339717    2.70948177926677
N         0.99224862341374   -0.79672805233331    3.67027482638665
C         5.68298183185226    0.66408503675663    2.11322326918895
H         5.15754166948537    1.56735081538959    2.41087635410346
H         6.39070772945714    0.89663660842036    1.32043915150147
H         6.24164811711683    0.28566510934241    2.96862458530467
C         4.70521140522995   -0.34944530928263    1.64633713420865
C         4.94555136589396   -1.50635386700428    0.89067371882774
H         5.88830913023799   -1.85159572992779    0.51881051746613
C         3.71428302339522   -2.10325070258753    0.71732261268806
C         3.35192800991585   -3.34592964684200   -0.01038736488650
H         4.24987603102486   -3.79262467017312   -0.42749907928948
H         2.66204541192287   -3.13265020377028   -0.82659845367379
H         2.88579993383339   -4.06995118017346    0.65775390088656
C         1.38324684400138   -1.43325879735984    1.38652785731400
H         0.94802122892453   -0.45251194472704    1.06930555994135
H         1.06704785720300   -2.22293532994910    0.70588360087538
C        -0.05340920522790   -4.00008634894195    2.30000164060715
H        -0.65962650135241   -3.72727838791516    1.43647858024400
H        -0.59899787681860   -4.73555938398426    2.88417088032273
H         0.86939776603220   -4.45841407133489    1.94481600737592
C         0.22828982046167   -2.81247126097024    3.14581754703281
C        -0.11754708181664   -2.55788452442758    4.45703110585387
H        -0.66334522680826   -3.20065250863386    5.11671811448575
C         0.38360829630574   -1.27994736584822    4.74209042061213
C         0.29131727252450   -0.51652690687926    6.01118499137802
H         0.37022060946222    0.54782419046004    5.80458013827404
H         1.10164013359962   -0.80059890437535    6.68210417536199
H        -0.65371059767455   -0.72470664550058    6.50717124209910
C         3.37407830779424    1.62873712211855    4.97353271167282
H         2.83522950355940    1.46107399196951    5.90764474125743
H         4.30830366048549    1.07335094714112    5.07864198805873
C         3.71966091157518    3.11927294362461    4.90692982375173
H         4.33447320273901    3.34663638457098    4.03830782689625
H         4.27352922258714    3.42443318559058    5.79857547110515
H         2.81896398023622    3.72461824972802    4.84410385686468
C         0.49449357198671    2.10591177881396    1.29235422696617
H         0.03023872749653    3.07982962171377    0.98471595957096

