83
CSD_code = FORKII | q = 1 | S = 0 | Stoichiometry = C40H38P3PtS(1+) | MND = 4
Pt        1.87680760103574    2.17231364372509    4.83938927120057
S         0.91608275485471    2.16064235979282    6.99700481319955
P         3.94977674817895    1.58935089789980    5.58869236469899
P         2.90784539936534    2.43450107911726    2.83494861350159
P        -0.06062499667784    2.26945104599360    3.60227647906471
C        -0.36055437952563    0.96995868246984    6.73166706307085
C        -1.69782489267913    1.33384744655891    6.83448956557659
H        -1.95927014326803    2.35909133515181    7.04886438346258
C        -2.68258968558632    0.37569516910422    6.68113975606532
H        -3.72059070264893    0.66272584329481    6.76065683756878
C        -2.34252212359086   -0.94523631996177    6.44155113683314
H        -3.11424143078854   -1.69215522956968    6.33409159002667
C        -1.00888828987704   -1.30908332331432    6.35661553724884
H        -0.73721797593481   -2.34041147697616    6.18617465572749
C        -0.01777503549966   -0.35726250988880    6.49852209002830
H         1.02659729279210   -0.63734128935439    6.44789314729745
C         3.97357013757730   -0.11724227953542    6.18869566630036
C         4.29947944557230   -1.20785391153197    5.38921098301045
H         4.62628117427057   -1.06568316763855    4.36890927319809
C         4.21412635929095   -2.48849376538816    5.90756089284482
H         4.47408505156947   -3.33436869909979    5.28878213609171
C         3.79539617767452   -2.68665896236039    7.21299364343378
H         3.72858700066658   -3.68784018012339    7.61003395305907
C         3.45785396140111   -1.60179471424264    8.00846296480744
H         3.12371477205364   -1.75617896269219    9.02285159076115
C         3.54027227919532   -0.32032204654350    7.49915710337384
H         3.26155489526185    0.53388725939047    8.10238617622148
C         4.78101813042599    2.54769977739059    6.87017191635079
C         4.16745188562100    3.70440563879664    7.33716180269071
H         3.19496957679533    3.98222164969935    6.94675984068425
C         4.78806796237787    4.46388255551546    8.31235914703185
H         4.31228941885940    5.35841247072407    8.68380470546733
C         6.01682001191244    4.06888098936679    8.81600933242717
H         6.50040880039093    4.65916324839599    9.57918095641758
C         6.62670382438781    2.91214716730271    8.35238102895834
H         7.58020094264976    2.60591692553772    8.75506276537682
C         6.01272463079184    2.14592441646714    7.38002023789286
H         6.47468358913134    1.23530803154697    7.02357355294991
C         5.13804534786614    1.66614900794554    4.14717776388648
H         5.55701869470121    2.67889502535717    4.17701010307371
H         5.95873570869132    0.96075778051458    4.30480642408911
C         4.45824866026865    1.44446494820107    2.79065397802679
H         4.18256983589096    0.39547210581563    2.64410699358325
H         5.11176650632142    1.75050016539748    1.96850970874291
C         3.40848144875720    4.15428945543688    2.61051757799332
C         4.13703767752434    4.58753482660764    1.50723575848220
H         4.42711827838810    3.88619993243425    0.73638389387509
C         4.48512000375958    5.92204386751754    1.40503492836434
H         5.05083310225885    6.26548361421990    0.55249161339194
C         4.10918053866061    6.81832721658991    2.39463067355144
H         4.38601273208180    7.85756073650174    2.30756718728940
C         3.37993866863538    6.38808077206537    3.49251554849633
H         3.08816157451278    7.09008855030296    4.25828686972015
C         3.02830044462411    5.05591234196042    3.60124924238991
H         2.45130722116033    4.69253284795915    4.45337980296546
C         1.76754767781363    2.06299073074617    1.43992732972674
H         2.13309343637272    2.48797345360132    0.50051889692537
H         1.67909929527869    0.97827249555384    1.32755143017152
C         0.42564481636369    2.68253752733879    1.84110323714847
H        -0.36825252208082    2.36247108910914    1.16054505837568
H         0.49503191105077    3.77593958346016    1.79520441194604
C        -0.61984310977971    0.55498876881939    3.41948551164216
C         0.38781674408899   -0.40992579657045    3.40717516474838
H         1.42205671099753   -0.10556347430168    3.57499910911621
C         0.07594317862819   -1.74075413503572    3.21670826300180
H         0.85849424093175   -2.48478059787370    3.20434807960487
C        -1.24830898604492   -2.11979799946163    3.05637949821551
H        -1.49603423659574   -3.15953526877031    2.90788958770804
C        -2.25415889675927   -1.17003530655025    3.10992377130889
H        -3.28589760468341   -1.47089862730899    3.01138546886341
C        -1.94671349114526    0.16743943779269    3.29344477186697
H        -2.73596592503338    0.90138707871446    3.35599931411919
C        -1.47010430381966    3.36228224435816    3.87784176366704
C        -2.53517008070443    3.46036587855189    2.98513905982331
H        -2.55014784998497    2.86816566301512    2.08106841005772
C        -3.57599614532176    4.32826984823331    3.25879177607491
H        -4.40595652069112    4.40165422486114    2.57226396550435
C        -3.55625862758229    5.10446924800993    4.40795748234282
H        -4.37508289980437    5.77631363130131    4.61489816085310
C        -2.48627214141170    5.02593173720834    5.28413395391859
H        -2.46633960903268    5.63924379652098    6.17217402512366
C        -1.44185814092098    4.15870893210594    5.01930920747468
H        -0.59631353224829    4.08609184672967    5.69396824878552

