31
CSD_code = FORLEE | q = 1 | S = 0 | Stoichiometry = C10H16AuN4(1+) | MND = 2
Au       19.82361351519327   10.05155606619977    3.84559246725908
N        21.35308962012861    8.74010235950979    3.92303776859643
N        21.33915636476211    7.59055140694544    4.63040036514917
H        20.53244778335255    7.31907806811086    5.16988783275322
C        22.50122467575003    6.92149525169635    4.50824230651328
C        23.29907764461378    7.68384892713359    3.67864823189704
H        24.29529284671267    7.46242560853741    3.35902392122162
C        22.54712373614313    8.81188015886675    3.33483833107071
C        22.74662967768878    5.62532436374432    5.17723596486460
H        22.55458620372157    5.70063409509903    6.24627122782484
H        23.77664883786668    5.31853185592768    5.02547026179588
H        22.09164878643717    4.85572871204353    4.77001130017798
C        22.95127968605987    9.94159106925963    2.46856134049305
H        22.12685665197802   10.63849818296397    2.33642412128053
H        23.26820964854775    9.57186845570588    1.49539363752298
H        23.79388325319405   10.46906885972204    2.91280349255775
N        18.28965962594052   11.35786408234364    3.76861442268384
N        17.17933872090000   11.19093053484552    3.01934179544513
H        17.06164403098902   10.37918394993485    2.43389172478750
C        16.32472606036309   12.22088117390839    3.16677214560564
C        16.92048014009196   13.09104845336272    4.05780924332189
H        16.52818816764544   14.02055936052241    4.41242546794585
C        18.14635192818371   12.51743486811187    4.41026349422646
C        15.03272211782356   12.29131569542308    2.45014318216842
H        14.46582815754788   11.37171970598686    2.58449399227389
H        15.19655220735134   12.43411530666254    1.38242503616488
H        14.44631888519095   13.12501419069880    2.82319718045459
C        19.16605202942390   13.05589455147198    5.33777455138486
H        20.02060627427405   12.38604046456380    5.40002750673127
H        18.73853133409236   13.18221520155676    6.33087319492724
H        19.50253138802481   14.03289901913416    4.99560449090813

