83
CSD_code = FORMUW | q = 1 | S = 0 | Stoichiometry = C40H34F4P3PtS(1+) | MND = 4
Pt       21.20572528578368   24.39954895953587    9.14712286021628
S        19.87910081362810   25.58798409029076   10.72080403646113
P        23.19515283934395   25.38638560465084    9.77184758504752
P        22.59983032011556   23.00869281887640    7.99372156977247
P        19.56134521304548   22.87691750416631    8.66982841106945
F        20.61716805877167   26.80034113327706    8.08250873860350
F        21.52486505485037   29.32461690788013    7.66249924481198
F        20.99352345557720   30.30508477473821   12.23102594424414
F        20.15143680955610   27.76778181000955   12.69214768772991
C        20.39355215213037   27.21417945072637   10.40868280073636
C        20.73680391993172   27.66281620853100    9.12905365491535
C        21.17386647567793   28.95609743214347    8.90189081479818
C        21.26372873708147   29.86387206042288    9.94181509852145
H        21.60253483431426   30.87125031097859    9.76980349029908
C        20.89739400730153   29.44562025648958   11.21185529245992
C        20.46763359476020   28.14979791300597   11.44826526212615
C        24.17490663707829   26.16091362034776    8.46149293997647
C        25.48584062996066   26.56935867996715    8.70028008171832
H        25.90873310364787   26.48071988917914    9.69182732033593
C        26.23824598655268   27.09270676536148    7.66595075911738
H        27.25180941640407   27.41473943817060    7.85039534608153
C        25.69449828134119   27.20405291640921    6.39423042301909
H        26.28729616070174   27.61603813188381    5.59229603994557
C        24.39492739124471   26.79124134410734    6.15329631345501
H        23.97009433514082   26.87770964251181    5.16521637948874
C        23.63432764577874   26.27049998047423    7.18532457935490
H        22.61443528584910   25.95737919212706    7.00473221966156
C        23.37754490939742   26.38685227722254   11.26368891282852
C        23.78505134287073   27.71707595674865   11.21055737122775
H        24.07253053532365   28.15885057115855   10.26664229015055
C        23.81302546847686   28.47121690587290   12.37007867955705
H        24.13372862987153   29.50097531197929   12.33063046136339
C        23.41326697406051   27.91454960429371   13.57442714893675
H        23.42069025169696   28.51344229360572   14.47144219819017
C        22.98130802616889   26.59808678601818   13.62470972385514
H        22.64885547767648   26.17331477550153   14.55893900962318
C        22.95646685830934   25.83544349980477   12.47318806749414
H        22.59306980432714   24.81663902124406   12.50277650802516
C        24.20392567309807   23.85161923659474   10.07404038090012
H        25.20558351305850   24.12219351661717   10.42003996912986
H        23.71483240891819   23.27895641813778   10.86888321572470
C        24.27092022621487   23.02895192832211    8.78288249318835
H        24.61494608869826   22.00937526896703    8.97941210646518
H        24.96088868159220   23.50255165686999    8.07705223744450
C        22.80253794213664   23.08685598013828    6.20161896568807
C        23.88529572804806   22.51397109031623    5.54389632125607
H        24.65696577346533   22.00520446943549    6.10414691258787
C        23.96303227632531   22.59906517446663    4.16532286078130
H        24.80147787512550   22.15857854696822    3.64800725377007
C        22.96845957948515   23.24683570261431    3.44853010557726
H        23.03879182171542   23.31101320678078    2.37379941158643
C        21.88625457479291   23.81331910495323    4.10459030250490
H        21.11415811047742   24.31710812402016    3.54375148152301
C        21.80260863463047   23.73683700156397    5.48205670590646
H        20.97072283407757   24.18697736238650    6.01615206091218
C        21.85982402462605   21.34208477195040    8.28146689189253
H        22.39988207684215   20.57896821706324    7.71229675191402
H        21.94232731212400   21.11138515463830    9.34895820950873
C        20.39215767892153   21.41629849039042    7.86175911133272
H        19.86421647819931   20.49734447167540    8.13168459676988
H        20.32319778806736   21.55568679965637    6.77747913255727
C        18.14003301321798   23.26004132026255    7.62886875587657
C        17.73259703315821   24.59068561314338    7.58532548898286
H        18.28401983911141   25.33047488947068    8.15188455992979
C        16.63739490981739   24.95265886411519    6.82327835431955
H        16.32044437725294   25.98358954917884    6.78914801464645
C        15.94948890879716   23.98850346386365    6.10373033123062
H        15.09371456814798   24.26822555570821    5.50885222075213
C        16.35677730598125   22.66347997934356    6.14275117199492
H        15.81778555064906   21.91626089902024    5.58013544625016
C        17.45176438965144   22.29221072734366    6.90171880221880
H        17.76671187376024   21.25873020430137    6.92877081922778
C        18.93405239186237   22.18919384537234   10.22173804438557
C        17.67034538752947   21.62314120574035   10.33849996255193
H        17.00474177290221   21.60235774952199    9.48734747267365
C        17.26622648918920   21.10520638695016   11.55638993794518
H        16.28363843238266   20.66990637109212   11.65278015549904
C        18.11361167073855   21.15265412819351   12.65162111891933
H        17.78917599608269   20.75294912096066   13.59982010707971
C        19.37222576093253   21.72277171995217   12.53777031147426
H        20.02439991942729   21.76936739734594   13.39670347503821
C        19.78159474338823   22.24268363851579   11.32558623611440
H        20.75493384158516   22.71823183626529   11.22435646862439

