75
CSD_code = FORNAC | q = 0 | S = 0 | Stoichiometry = C30H38Br2N4Pd | MND = 4
Pd       10.52933754817504    2.78419814657622    6.94647114067881
Br       11.24725487555511    1.30575385070267    8.78027984547360
Br        9.65157816341575    4.63319047198010    5.60008070543601
N         7.78337769350621    2.49014020248251    8.04997402915768
N         8.01591107035439    1.30588924480712    6.23149796116735
N        12.78739159425591    4.25031173137499    7.87849090586828
H        12.25477031135183    4.16115747535288    8.74049130343382
N        13.04045268161747    3.73002552677775    5.68618248264674
H        13.79846308600733    4.40989395186071    5.65626693888829
C         8.64976221212274    2.12359424865753    7.09045494011650
C         6.56539685454235    1.88337248921061    7.82635361383072
C         5.35771357725058    1.90591449067905    8.50866661775076
H         5.22067571704422    2.48448933475798    9.40754573498210
C         4.31822924799174    1.15171828286797    8.00086879600187
H         3.36817547460749    1.15043415698650    8.51299075250315
C         4.46948114052869    0.39029042448652    6.84592193626840
H         3.63495509790895   -0.18990780321555    6.48286144989466
C         5.66525911059439    0.35885067044144    6.15575052119665
H         5.76518279610302   -0.24100267741305    5.26582273347031
C         6.71612041729621    1.11576187598658    6.65199110594426
C         8.14167773386693    3.44813140679273    9.08621119994375
H         9.20118397364695    3.72404947188486    8.88411278348119
C         7.29707682668402    4.71312769527528    8.95495346171070
H         6.24433253762702    4.50685573096051    9.12718887287171
H         7.41161613049221    5.13339784748566    7.95715151310525
H         7.62952408656287    5.45147675611304    9.67990057620903
C         8.06779556542466    2.81127205884467   10.47050546758162
H         7.05344324333572    2.50816435511627   10.71415596973035
H         8.40654438617067    3.52329908047303   11.21849930248191
H         8.71326296248626    1.93614821655523   10.51201690033359
C         8.66556883646264    0.81396408162217    5.02740239813217
H         9.67390597057019    1.27638777113045    5.02962814435475
C         8.82385851225323   -0.70317344256635    5.07338641489732
H         9.34046286484355   -0.99826094981842    5.98520410523285
H         9.40812735845311   -1.03642558449438    4.21999035674016
H         7.85795132786973   -1.20072009529179    5.04788428737016
C         7.94263032802645    1.30599770721421    3.77687843964246
H         6.94574812131354    0.88178091710426    3.69642392848142
H         8.51482191093754    1.02735569756006    2.89605967216762
H         7.86088936785623    2.39094314681127    3.80028333475717
C        12.34117967476238    3.59384474531109    6.80910343886140
C        13.91602320036944    5.11991590249023    7.91113202107057
C        13.68186856429959    6.49577081848923    7.97990701781090
C        14.77423971828679    7.34968309453122    8.00033613979418
H        14.61244661567865    8.41611849142030    8.05108112890711
C        16.06253749893077    6.84567700308016    7.95228210108250
H        16.90443320414609    7.52141578133736    7.96693885718773
C        16.27678508120225    5.48145309534285    7.89015772629461
H        17.28389223019159    5.09245169303896    7.86097459148572
C        15.20764324295997    4.59407416122074    7.87092499079217
C        12.27713170003064    7.01201900396816    8.03291704869623
H        12.25335472587198    8.08317541790070    7.85368802291143
H        11.84208562587975    6.82041433294324    9.01502944494702
H        11.64578976886247    6.52150815447819    7.29160535029372
C        15.43952540197366    3.11439480655995    7.80884549423852
H        14.61352237612111    2.56587475656780    8.25773456197994
H        16.35634911301837    2.85436380727523    8.33214075261467
H        15.54317383779214    2.78544083314252    6.77322454791039
C        12.59530467480598    3.23847512368809    4.43409998991724
C        12.33859524293135    1.87513818713717    4.25767960205644
C        11.84860013633567    1.45194135927715    3.02660238169899
H        11.63985590059401    0.40147584408219    2.88022395222193
C        11.64107337304443    2.34731837937136    1.99590308186964
H        11.25237028221181    2.00202776424770    1.04949668566054
C        11.94582062974556    3.68516328233390    2.17156588659947
H        11.79470066977307    4.38374264994850    1.36250479402996
C        12.42607836621934    4.14944649973070    3.38537550912826
C        12.62612351542215    0.86337818814937    5.33050310018776
H        13.48999839597951    1.15625490515026    5.92653936862541
H        12.82210765056195   -0.10873067445416    4.88302587982741
H        11.77083655409082    0.74513992978189    6.01089031584653
C        12.72098924246189    5.60398565695234    3.59035311170014
H        12.53175084093427    6.15968693420021    2.67667507447785
H        13.76073450198210    5.76447926464446    3.88118640263623
H        12.07736772766109    6.00673284322599    4.37205098225613

