55
CSD_code = FORNUW | q = 0 | S = 0 | Stoichiometry = C20H29Br2N3Pd | MND = 4
Pd        6.67111151776954    9.02593396261112    6.56332509711706
Br        7.91507672980302   10.65523464149068    5.34578427151594
Br        6.18235648441823   10.52611964505605    8.39713723901797
N         8.24343018214782    7.10786018633176    4.90165317527989
N         6.41578053327570    7.73742004560340    3.88081883625632
N         5.02795947888165    7.20379796390811    8.37177704413913
C         7.11550142397939    7.82718735672986    5.02381979141187
C         8.27868008279436    6.52660216380729    3.64964872203764
C         9.19087264984964    5.68966502682187    3.02312517666466
H        10.09759595652442    5.36829214127741    3.50822017230938
C         8.90301791896499    5.27257074665603    1.73845006488792
H         9.59571688532387    4.62194969569862    1.22743509855808
C         7.73952781023700    5.67336453859995    1.08856311275762
H         7.54959120322981    5.32677787963304    0.08453513128188
C         6.82266969497198    6.50543790018197    1.70032361924156
H         5.92827530121087    6.80446711341539    1.17938366808099
C         7.09945251252062    6.93278093456972    2.99100105829214
C         9.26765150805726    7.08251132788812    5.93643705403839
H         8.87222959228212    7.71614473613151    6.76307089009157
C        10.55697687283032    7.72116521760044    5.42831887269064
H        10.99408618561158    7.14506336239292    4.61773163043057
H        11.27644143218974    7.78372663856252    6.23997637452899
H        10.35307586312791    8.72881618051963    5.07109705971854
C         9.46792546955719    5.66790520932284    6.47304042188328
H         8.51780250186003    5.25359658678836    6.80616396400900
H        10.14825691338754    5.69393487982068    7.31977710335698
H         9.88616244719289    5.01162435680994    5.71497678473959
C         5.18789059351575    8.48769597914388    3.65812568996923
H         5.00527763192043    9.04775479192693    4.60359568271607
C         4.00809379033710    7.54838213985706    3.42375891632548
H         4.11815827118275    6.99781136139805    2.49368375829224
H         3.08879779013516    8.12551062837832    3.37577753239649
H         3.92581936791289    6.83547042480684    4.24253381087967
C         5.37908402326583    9.50496164456916    2.53692908988746
H         6.22421522467806   10.15133661649093    2.76609132885408
H         4.48896113605351   10.12169490641832    2.44949087932122
H         5.56101313255928    9.01713733268700    1.58354031030078
C         5.66804525511216    7.76921168403176    7.58149161203236
C         4.28590838987040    6.57613644283707    9.37751146122250
H         3.92535062297760    7.36535616848177   10.05056022127680
C         3.09305623546728    5.83457692697418    8.76595422133526
H         3.46099230947601    5.08971433995830    8.05526420713938
H         2.46200443304125    6.54058570586868    8.22204284726917
C         2.29303246693835    5.14706805628172    9.86789692058218
H         1.88666175420226    5.90176062944550   10.54461569916668
H         1.45393056367336    4.60797632011361    9.42509925833684
C         3.17853264813804    4.18367028818580   10.65313707998108
H         3.53576630448179    3.39387557538771    9.98793301031679
H         2.59825361605469    3.71320216523749   11.44820135486512
C         4.37216568953518    4.92257420134257   11.25163552035507
H         4.01795309699201    5.67167650665551   11.96287063215482
H         5.01197661739786    4.22370317429299   11.79268632958119
C         5.18277879122045    5.60843182087008   10.15679010124325
H         6.02122718635283    6.15728545911467   10.58984026688232
H         5.58432790552583    4.86008827097160    9.46835082297925

