51
CSD_code = FORPAE | q = 0 | S = 0 | Stoichiometry = C18H27Br2N3Pd | MND = 4
Pd        1.76336301654156    4.08379688546371   14.63317272551201
Br        1.68797696018690    2.10607601696391   16.01789695180423
Br        2.95975616884336    3.00330837401928   12.87550709420129
N         1.00640485475625    5.98365145208306   12.44320793256168
N         2.88902291225765    6.56395387960374   13.39019910117170
N         0.30258666825964    5.45554225022792   16.93112099666564
C         1.86493895284016    5.69504406240085   13.43516517264178
C         1.48044181051588    7.06783291073700   11.73143656782842
C         0.98965579313771    7.76628288282995   10.63754235160159
H         0.06560648431498    7.49498330124934   10.15470865795256
C         1.73090436282774    8.83446351628973   10.17214129184048
H         1.37377279823150    9.39355057983089    9.32118173807966
C         2.92924085442626    9.20439968329084   10.77543315112463
H         3.48098902665226   10.04415588666359   10.38220403106593
C         3.42885376276808    8.51902497676163   11.86526878005364
H         4.35968303046187    8.82042142993315   12.31624007767456
C         2.69503738079900    7.44241247745713   12.34239607868105
C        -0.16870823939519    5.16919480365743   12.16715112939277
H        -0.17021796007105    4.37490789715109   12.94803237761521
C        -1.44731588635858    5.98922944951740   12.31551917045158
H        -1.47010718127725    6.47960391130469   13.28704344475084
H        -2.30998595184373    5.33310256903317   12.23956794460437
H        -1.52378128584566    6.74842811420883   11.54220456932679
C        -0.04325666983731    4.49208019925547   10.80553831456140
H        -0.03113849336037    5.21960050564144    9.99891763657659
H        -0.88220961979692    3.81825214214226   10.65582251068788
H         0.87619168357112    3.91107776190922   10.76606618181686
C         4.03765864838052    6.46304141726842   14.27948160907506
H         3.82256551498008    5.59793400072639   14.94732084214535
C         5.30173517259554    6.14257154703581   13.48722397767218
H         5.15013118695585    5.23685903154901   12.90305507862383
H         6.12784273847505    5.97499844420361   14.17261288573526
H         5.56560105040180    6.95256640868016   12.81325862250472
C         4.17030840403184    7.71398588504815   15.14400641468464
H         4.41882446517999    8.58556701281779   14.54503490711844
H         4.95694235576974    7.56520361497354   15.87850879972497
H         3.23800378991691    7.90984374848064   15.67123045488605
C         0.84262385694915    4.98378297563575   16.01372215689708
C        -0.30632362013786    6.23183004011569   17.91651513578370
H        -0.02596564878523    5.82720214620890   18.89407570762248
H        -1.39084685334582    6.14018384360523   17.80117246006856
C         0.13495301724329    7.69764726284699   17.79954277327338
H        -0.43654685934307    8.27724810148684   18.52601984056488
H         1.19211834301088    7.76799628999416   18.06582468757177
C        -0.06345150558662    8.28380619106297   16.40005040805693
H         0.51571385049339    7.70197260069579   15.67574248179663
H         0.33597797531093    9.30013082927836   16.39758159771589
C        -1.52390434843683    8.32090437284181   15.96462843227645
H        -1.92291696500617    7.31705092755284   15.83737672114630
H        -1.61765847525005    8.84303734240194   15.01516989229774
H        -2.12959132741666    8.84345804586016   16.70165813251264

