55
CSD_code = FORQOS | q = 0 | S = 0 | Stoichiometry = C26H24N2O2Ru | MND = 8
Ru        5.73164693667323    3.31606443866018    6.96177761344225
O         3.95599622736596    3.87242711360597    5.92846369740546
O         7.15649426870737    3.00600771621683    8.51205767044770
N         5.41108964717165    5.13504864844980    7.76664913662096
N         4.53479506075129    2.55632747501934    8.39251784257958
C         7.57242327294448    3.97655585362035    5.99146683589130
H         7.93679857990755    4.87388642585761    6.49585270325622
C         6.54900394061967    4.12134395686545    5.07439588513881
H         6.14462535150224    5.12539988216258    4.92211645211470
C         6.35500406419862    3.18251143090524    3.90096262471854
H         7.33104186398198    2.81136875302975    3.58234836546830
H         5.93520682470719    3.74614186097321    3.06560411692134
C         5.40634628035250    2.01227273019980    4.22111680166982
H         4.38630665964822    2.32284013691284    3.99078690873245
H         5.64402094549675    1.15045745852316    3.58690382664240
C         5.42652818006876    1.58307512195508    5.66995980936318
H         4.51237496420097    1.06971649866808    5.97519340588284
C         6.57345183207593    1.35181376040211    6.40523997367259
H         6.49524647246887    0.68442266324515    7.26742271628379
C         7.96546239077054    1.45359303308720    5.81540406910936
H         8.61292703399101    0.73136986621071    6.31631497399681
H         7.92221361417783    1.17221861445859    4.76141244449438
C         8.58451117463927    2.85430215840455    5.97942654013783
H         9.31636707887264    3.03791207980069    5.18437300654137
H         9.11422000340047    2.88730018273300    6.93246175395851
C         6.14909779494622    5.74969540445175    8.66873996129460
H         7.04667003246876    5.24258685801767    8.99840231590818
C         5.80435994585643    7.00169707478693    9.19481444563237
H         6.44817606870182    7.45085788852271    9.93500079413345
C         4.66662149427195    7.63010739625811    8.76625124038315
H         4.37814039908099    8.59525949204734    9.15623647601845
C         3.85537380093093    7.00547630258289    7.79363361163739
C         2.67324025143758    7.55293039647293    7.27559226785220
H         2.33977096382391    8.51633686511194    7.62913948954214
C         1.95577429068669    6.85877738843913    6.32654536472321
H         1.04575693512383    7.28893264683438    5.93246572008591
C         2.36285528783895    5.61876240762349    5.85446284104414
H         1.78272496885698    5.09664363108287    5.10903227646518
C         3.53416606293097    5.01902874300138    6.33185303447366
C         4.28267215491456    5.73623865121725    7.32112244123552
C         3.23968585513464    2.32779928089898    8.31079423633981
H         2.76124959959110    2.54241575508950    7.36394333936628
C         2.49473719934846    1.83364772516851    9.38965738661908
H         1.43598035399703    1.67085666990480    9.26048941656304
C         3.11527133842564    1.56765664431159   10.58012520106310
H         2.56370760700771    1.18702042534955   11.42730940174181
C         4.50405732490863    1.79274307600650   10.70231820393252
C         5.24770475834679    1.55329169615150   11.86643564720008
H         4.74630098317723    1.17260866553784   12.74278565390575
C         6.60193608355864    1.80471086869771   11.87756529722021
H         7.16727171147343    1.61653754752391   12.77947686865953
C         7.27118822058537    2.29321669185831   10.76417059373453
H         8.33371233829303    2.47932092464588   10.79901589067192
C         6.58501863023610    2.55305463085182    9.57204924252628
C         5.17537487535011    2.29621039158513    9.55664216553588

