68
CSD_code = FORQUY | q = 0 | S = 0 | Stoichiometry = C28H30BN7ORu | MND = 9
Ru        4.60774974137997    2.14210823227471    3.03071622275925
C         5.35436704452428    1.10174457100899    1.13206454910816
C         4.59094630369196    0.20426016967945    1.89827448886807
H         5.01343870926785   -0.75454325293938    2.18247147918841
C         3.24565025702088    0.49964672829193    2.24431283317047
H         2.67137390801187   -0.23987092514705    2.78836906167886
C         2.66058642361860    1.70978514040100    1.84559885834825
C         3.41292995298872    2.59050224185369    1.00809224739550
H         2.92697694255887    3.50116329828139    0.66008658995320
C         4.72306114308678    2.28957972551782    0.65507571692269
H         5.26270692665986    2.93721299953287   -0.02734580169910
C         6.74271289193293    0.75047968049550    0.67765482401609
H         6.70353766805573    0.32784478971530   -0.32793668305333
H         7.19665392745852    0.01661083610437    1.34037377335994
H         7.37936572103337    1.63330124371965    0.64642119966354
C         1.21542480198968    2.05945450764135    2.11151126078570
H         1.15225919471774    3.15254052940237    2.16165677304620
C         0.37668114216512    1.59181590790997    0.91581755893791
H        -0.66650505763176    1.85293912866934    1.07245334664168
H         0.44987603270851    0.51208470254363    0.79487967309678
H         0.71825631625502    2.06987773989049    0.00130498829526
C         0.67788816721725    1.47078644210274    3.41401985774218
H         1.35811801636735    1.68265646845887    4.23639611390898
H         0.54135000890395    0.39393969767679    3.33599645956054
H        -0.28734307693205    1.91449367658719    3.64470751937280
N         6.34653742786128    2.99081748339933    3.57888308039342
C         7.03875171603508    3.90205665134121    2.92615250391169
H         6.66779921539338    4.20380224144828    1.95703784221781
C         8.19436073773311    4.49226986892265    3.45487816505945
H         8.70174056629120    5.24985330643553    2.87921613662033
C         8.65211391817144    4.11323632725065    4.68808532413252
H         9.53345938119867    4.56267536041524    5.12014764847291
C         7.96199246692587    3.10875309826716    5.40194574108144
C         8.34288961159901    2.60320810458856    6.65422152404935
H         9.21938093318770    3.00324071810346    7.13908746728803
C         7.60062855090286    1.60617887225916    7.24642213188941
H         7.90510892256191    1.22286353772645    8.20955273284793
C         6.46828552029027    1.06517380651070    6.64695303332517
H         5.91298385596938    0.27652785601250    7.12960301409044
C         6.03656445006394    1.53531289523951    5.40589946985656
C         6.79815824582743    2.57799258371132    4.79072249783709
O         5.01109646265816    1.07249842029039    4.76594283928013
B         3.87720918893238    5.60019260378928    2.72899377260188
H         4.49899374707395    4.88841834027104    2.00982166320178
N         3.48257921257389    4.81752618665036    4.01537604302255
N         3.72347598995962    3.52827323782810    4.25946916331903
C         3.20312512822911    3.23209810570503    5.45137828009576
H         3.28501163801603    2.24249726059606    5.86427167231958
C         2.60827960829219    4.36473867313889    5.99061251485351
H         2.10635255447237    4.45289929318722    6.93161923858313
C         2.80918886310001    5.34682357975056    5.03926255777351
H         2.54716720561067    6.38440270997659    5.03648714759570
N         2.57698143483768    6.03987183015104    2.05427296093506
N         1.93411740045020    5.23664775216682    1.19884078340093
C         0.83278331723446    5.87121658030075    0.83123361452119
H         0.15023865773738    5.41710891654915    0.13733351208424
C         0.74766462114786    7.11590375857377    1.45909092417664
H        -0.02335110575222    7.85289028623103    1.35814955443861
C         1.88498959490314    7.17793697109886    2.23436492783184
H         2.24641669828687    7.94600702003038    2.88822476704697
N         4.70785990821371    6.80700945767383    3.13902034515951
N         4.35099388372867    7.62855405701983    4.13035441911429
C         5.28226964829972    8.55928634699713    4.21526163382158
H         5.20771205983966    9.33727844478991    4.95088864017992
C         6.27831520737426    8.35316984861542    3.25484641850884
H         7.15614229114966    8.94154729370427    3.07748889789264
C         5.86610241789416    7.22130224427308    2.59009486375200
H         6.30826573866606    6.70132378932102    1.76381762032320

