43
CSD_code = FORQIM | q = 0 | S = 0 | Stoichiometry = C19H20ClNORu | MND = 9
Ru       -0.52760839963610    2.42340199354311    6.86919177759101
Cl       -2.61858437870683    3.13561914125945    6.09270001077898
C         0.95927358528356    0.85486507068751    7.52383060936821
C        -0.32433364272793    0.24078553893293    7.42333169832458
H        -0.43599556207387   -0.64918186971987    6.81392116780489
C        -1.41509641398925    0.74751657233981    8.13022369426089
H        -2.37720893492534    0.24906959688150    8.06757624175434
C        -1.27592894532397    1.87387932325577    8.99994227547983
C        -0.00750446374601    2.46183293696461    9.11482584161934
H         0.15603347341441    3.26244973614375    9.82727490359320
C         1.10026401775865    1.96690606051347    8.37144048739177
H         2.08089969229520    2.40618496914066    8.52400541913918
C         2.11873600881403    0.28155750004172    6.76798616545020
H         1.91062908683225    0.32007015091412    5.69800061230089
H         2.27362875352835   -0.76162252870095    7.04440488242524
H         3.03164518950540    0.83962971624441    6.96538766647063
C        -2.44840458463747    2.34302310009463    9.82936213634128
H        -3.34301587404275    1.82365024079774    9.47059638214757
C        -2.68868511104858    3.84490549647085    9.66763682773689
H        -3.61114130911667    4.12758290058457   10.16829236999910
H        -2.78044223435355    4.08771625669514    8.60938789880555
H        -1.87667207451259    4.42427677556653   10.10207027375446
C        -2.22455085875784    1.96862589868011   11.29849577593593
H        -3.09429048629754    2.24770815364961   11.88784282826419
H        -1.35610855604165    2.48544773691591   11.70188273555122
H        -2.06608739947494    0.89689842229878   11.40263045595434
N         0.02927930819352    4.25388661989337    6.28274384097795
O        -0.05687820351761    2.05535281800427    4.88040110754429
C         0.04694363243632    5.34459645849765    7.02209493926285
H        -0.19742305365882    5.23553645646303    8.07071604454702
C         0.34597406095800    6.60510970603349    6.48816737982909
H         0.34210155841909    7.46152009713431    7.14414374489764
C         0.62949318851997    6.73471118244243    5.15467150615331
H         0.85956795802437    7.69742502437599    4.72318806963998
C         0.60713895664525    5.58984207062395    4.32790232961885
C         0.85749662297712    5.57999616109713    2.94839909618715
H         1.09358723783016    6.50647360343863    2.44868576518446
C         0.78529982019406    4.39657206509221    2.24587676693028
H         0.97381798795608    4.40412208530176    1.18177953761158
C         0.47411082885020    3.18543877568855    2.85232173267000
H         0.41612843425238    2.27656812777988    2.27481134755215
C         0.21761673308142    3.13274888698638    4.22413376914545
C         0.29199435081816    4.35900097094864    4.95762188400620

