49
CSD_code = FORQAE | q = 0 | S = 0 | Stoichiometry = C20H23ClN2P2Pt | MND = 4
Pt        1.68412221438607    6.95351159693671    9.72060379655597
Cl        3.50350902961840    7.94936514272336   10.77856879453212
P        -0.20215318148272    6.21266344677914    8.68192588044166
N         1.36577011195688    8.49795183315399    8.39157368480251
C         0.32022309221421    8.37515869761737    7.51670313962186
N        -0.46642066403128    7.30094321539692    7.50152747232343
C         0.07837106938570    9.40770630333070    6.57946846906630
H        -0.75582305823848    9.27777734313274    5.90951684424998
C         0.87880984413384   10.51400244044451    6.54407998645023
H         0.69527912996410   11.30234709580925    5.82870490928444
C         1.94014750678544   10.61394039898000    7.44895765586967
H         2.59510748158629   11.46921334199987    7.45397587655407
C         2.13623280516016    9.58982710313837    8.34201599431717
H         2.94864132920572    9.63813063954452    9.05521295989591
C        -1.57812039206850    6.41527598206588    9.86195445336657
C        -2.88532854541955    6.08036870862163    9.53180427004781
H        -3.08800399360592    5.61523293699304    8.57744142545905
C        -3.90957740338424    6.35088549379364   10.42144485072595
H        -4.92634683500404    6.08661411539346   10.16918317871165
C        -3.63591814883321    6.96575415390178   11.63321796523084
H        -4.43882206678728    7.17452057059982   12.32497368333703
C        -2.33610781365665    7.32468298788662   11.95477808679952
H        -2.12778172860205    7.81869084025972   12.89277654364562
C        -1.31071227165987    7.05286255085955   11.06833184500674
H        -0.27911045472885    7.33876881878161   11.29495382247426
C        -0.48860537805478    4.60757953540245    7.88892648811866
C        -1.07781425559183    3.53884070485092    8.55529356906213
H        -1.42784113362113    3.66557943997026    9.57034527502054
C        -1.23497889201263    2.32546948892010    7.91054828485792
H        -1.70127317598884    1.49835924997196    8.42660354834996
C        -0.79753900565316    2.16905231441554    6.60473333417390
H        -0.92205594355782    1.21942546115124    6.10523129219866
C        -0.20579841785683    3.23087056684255    5.93934328241086
H         0.13108528988637    3.10923031493746    4.92021726164548
C        -0.04851727381931    4.44557931890393    6.58050722107162
H         0.39897487233770    5.29018734501946    6.07623473703539
P         2.19102056219396    5.28958880153560   11.18241445047845
C         1.12596507712914    3.79862117223908   11.23709650848269
H         0.11638399695905    4.09205800619218   11.51812835265445
H         1.51076112787904    3.08423128074029   11.96345157613512
H         1.09512637613051    3.33678106472002   10.25237313112011
C         2.23718862914903    5.75018491542525   12.95005392550010
H         2.92596576364018    6.58130382345167   13.08407182348873
H         2.56399376122685    4.89663627520995   13.54333353076324
H         1.24278176168376    6.05717156743615   13.27057973102644
C         3.84029193367872    4.55848126356751   10.90363131079985
H         4.59103207872050    5.34137670121160   10.99158750914668
H         3.88037360664744    4.14157722553075    9.89792444501808
H         4.03249158200893    3.77371840419605   11.63487382267586

