149
CSD_code = FORTAJ | q = 0 | S = 0 | Stoichiometry = C63H78MoN4O3 | MND = 7
Mo       24.60349936151776   14.35439778452074   10.19126964151591
O        24.84294694691731   16.22979310671528   10.34508615104291
N        22.68473533104910   13.23504231142266    9.39654538525708
N        22.93316532415150   15.01006937486987   11.12938803258882
C        24.06303439491181   16.98803016954742   11.08412970241634
C        22.90364363725850   16.31630158508916   11.54100007978268
C        21.89600053253443   17.01897185324204   12.20026579310349
C        22.07355687536534   18.36151347294656   12.48578411099147
C        23.25841035849647   18.98827172559125   12.08707758824562
C        24.25963193560788   18.34724927924168   11.37741904430829
C        25.52359602936185   19.03794307360234   10.89074261502924
C        21.02231023165402   19.18372668783476   13.21974646780599
C        21.90331478211889   13.00817256244810   10.57609856910721
C        22.02932694620715   14.04592957017161   11.51912163015115
C        21.35022890025244   13.93323500043975   12.72842293573150
C        20.54746153677255   12.82491082290857   12.98181005180726
C        20.42819720373086   11.82534490037663   12.02653773314270
C        21.11241512021914   11.90844762626409   10.81933991537437
C        19.81679748058427   12.72823464043555   14.28755118221828
C        25.56205089823702   18.96602058933732    9.35734605098217
C        25.59853753269776   20.50773732880172   11.31240005042731
C        26.73595517985913   18.29921802470340   11.47213274218679
C        20.58637199756706   20.35760629733591   12.33160948568633
C        21.62473915625569   19.71721904108662   14.52722985394357
C        19.77386215445969   18.36937935637320   13.57145845237997
H        20.98255625116770   16.50968181442993   12.45379511421691
H        21.49072928996571   14.67547985622326   13.49892197289555
H        23.38590698452853   20.02958115904817   12.32764407365410
H        19.29275346506156   17.98499257029134   12.67518431593754
H        21.03754483307600   11.11665425265559   10.08767411724923
H        20.88227878028361   20.29350873094547   15.07577645313232
H        26.71476552413276   18.33666609323707   12.55949669455937
H        20.02060723017875   17.53894984154938   14.22858234551518
H        26.72515886771961   17.25780189008148   11.16003438636247
H        19.80894426765421   10.96396537091231   12.22606124842476
H        19.05965953148208   19.00648346711495   14.08985119708019
H        21.41952461090264   21.01809217049432   12.11012634753630
H        22.48026627095403   20.35832879311041   14.33597580979267
H        21.95296171913530   18.89015194125683   15.15299629621395
H        19.81393917806327   20.93971911478136   12.83042644031528
H        18.93539219045545   13.36992477083301   14.27070747082820
H        25.58354492384557   20.60487962727067   12.39556982800611
H        20.18696176844293   19.98608618812795   11.39039289576600
H        20.45192133153350   13.05561084260403   15.10780542456286
H        27.66102699857570   18.75518617275750   11.12487873501548
H        26.52892304369122   20.93944125675453   10.94871103201690
H        26.46129067617885   19.44973528530001    8.98049406782746
H        24.77525917316606   21.07988798044914   10.89054174409011
H        19.49173174398418   11.70880887516027   14.47810783206355
H        25.56123824452833   17.92983915110318    9.02486409407880
H        24.69309475454228   19.46789107978837    8.93504074419892
O        25.38643451950304   14.18686819039850   11.91086937927375
N        24.74088057977037   12.35800071332251   10.50046281719683
C        25.82799548434778   13.04143761850683   12.38256791952270
C        25.44002121965347   11.92902444345053   11.59762944281600
C        25.68810889317353   10.63148759059168   12.04320150242967
C        26.39609472932448   10.43544154652021   13.21614157194386
C        26.83143495842636   11.55032935648508   13.93942740060498
C        26.55641449610570   12.85567168120141   13.56872852426913
C        26.97670296439446   14.06992177226160   14.38140401897443
C        26.71875631513436    9.04584705960258   13.74974024909426
C        23.20429875273556   12.04360536445910    8.79327235046716
C        24.33939905605250   11.54671513752836    9.46168286602362
C        24.96661224379168   10.41208741021156    8.95620385775841
C        24.46133195683244    9.77546912272008    7.82641722091133
C        23.33040983269221   10.27766421009840    7.19815094697127
C        22.69899440442252   11.42062671651918    7.67494015127875
C        25.14702796560259    8.54854091601650    7.30426885463963
C        25.71475357391990   14.82708375281818   14.81974046757958
C        27.78259890260070   13.70063832150786   15.62955735863073
C        27.83845926446270   14.97551691239147   13.49214053430210
C        26.11214716609620    8.88789879352495   15.15112641331489
C        28.24301320710347    8.87678845100354   13.82134050543732
C        26.15953786113117    7.92785013223601   12.86494680344509
H        25.30079968549725    9.80118859149130   11.47873018542588
H        25.88221612977188   10.05599067675738    9.40251961132318
H        27.39125402474797   11.38050013993572   14.84286354454095
H        25.07578676019721    7.98749451039689   12.79818070604402
H        21.83339698010281   11.82389302454394    7.16897783542470
H        28.49444952568696    7.88208404052832   14.18411108604979
H        28.73241375757639   14.44610775989363   13.16846957077620
H        26.58210508639741    7.97249695069023   11.86406791919865
H        27.27727185607626   15.28018802527657   12.61217761925837
H        22.94212870853582    9.78572638557292    6.31923480116108
H        26.41750625350948    6.96186090179689   13.29509466361512
H        26.52989865338330    9.60882294194944   15.84769096867009
H        28.69101164299334    9.60636019816965   14.48958900170807
H        28.68079032804810    9.00641746142420   12.83397034244631
H        26.30961591018291    7.88921625223265   15.53576552547481
H        24.88370897609381    7.68485027766399    7.91552041336575
H        28.69335922914619   13.16892548512110   15.36361446066014
H        25.03534225894094    9.03743293625745   15.11141721734378
H        26.22768403476338    8.66720755098920    7.34271307195860
H        28.13920037191352   15.86809995182031   14.03719865185645
H        28.06540848168295   14.60942745769329   16.15715925667003
H        25.98641253639665   15.70643393535375   15.40075376736547
H        27.19541245574404   13.08674907121314   16.30887275338986
H        24.85086879769849    8.34263819326172    6.27903631950027
H        25.14324636565549   15.14900949881934   13.95142067473882
H        25.08452519857765   14.18510293567951   15.43288806179069
O        26.35379393160830   14.26447604404513    9.46582321322688
N        24.35194027902148   14.65480033387643    8.20463002789776
C        26.62988532775298   14.61576598652775    8.22895349994446
C        25.47445341097987   14.82350630453591    7.43777663789372
C        25.59019689988251   15.04346739863468    6.06593037211199
C        26.84625096766214   15.14689516861548    5.49400167734798
C        27.97502483632967   15.00845067462893    6.30785470705117
C        27.90981842080624   14.72887894963793    7.66231399362922
C        29.13314571355846   14.51958129265642    8.54047062010062
C        27.04457970977774   15.40619733541486    4.00628966607286
C        22.10253224706286   14.16110161750062    8.47084443872673
C        23.06772777990454   14.91955958404760    7.78145535306605
C        22.63509961053991   15.88467299780637    6.87718163810387
C        21.27516224211809   16.07301330328018    6.64892448299569
C        20.34654663499191   15.29871789494966    7.33013135174104
C        20.75590691212255   14.34186977747250    8.25166933749188
C        20.83111933740567   17.11187607151498    5.66314302741586
C        29.08944416182140   13.09434536960661    9.11033686737251
C        30.44948414720102   14.70102224974416    7.78017540243266
C        29.08672730469520   15.53566062417998    9.68892372702154
C        27.85219554054605   14.25292703227487    3.39431446314947
C        27.80518794546844   16.72726494205525    3.82373363063075
C        25.72125205083332   15.51254084471340    3.24275709683074
H        24.69730282543837   15.10355838564815    5.46830553624744
H        23.35017172282116   16.53229165967324    6.39387071982933
H        28.94421396705211   15.10373151581186    5.84956116986879
H        25.15006561443629   14.59046765621613    3.32053488683355
H        20.02995695923851   13.75785828186410    8.79921648824686
H        27.94141600840571   16.93964052253135    2.76514394144263
H        29.10897965602454   16.55026254203061    9.29613354149144
H        25.11960386983070   16.33798730318542    3.61554097206412
H        28.17481366940646   15.40664062030057   10.26672723852752
H        19.29189841799568   15.44888442439836    7.15570305254957
H        25.92434600550052   15.69468346551718    2.18905014974033
H        28.83720100818345   14.17555571024530    3.84511903074405
H        28.78433394264043   16.68797431124447    4.29197941762387
H        27.24656871400048   17.54586911529139    4.27226240935943
H        27.97876306044229   14.40880184967121    2.32473572886875
H        20.95588111134754   16.73912308857412    4.64608091186106
H        30.52674664779464   15.70380904206315    7.36620949486077
H        27.33242274459935   13.30972011168608    3.54805767867343
H        21.42853957508005   18.01551250145939    5.76270351949175
H        29.93889030985695   15.39893958937412   10.35176624697138
H        31.28317687040792   14.55415291303230    8.46401285934227
H        29.95311447161845   12.91778416244916    9.74872391203833
H        30.54226561318296   13.97410196263077    6.97637417374543
H        19.78368870785171   17.36367815775090    5.80700984654272
H        28.18706307878416   12.94806521016137    9.70070660633582
H        29.09858615837308   12.36525924999722    8.30186210128224

