29
CSD_code = FORWEO | q = 0 | S = 0 | Stoichiometry = C15H10FeO3 | MND = 7
C         6.03356732866797    4.06031868658546    5.44760610636250
C         6.78767241334052    5.19717113800382    5.60087982393026
C         7.89681742508042    5.49004815140966    6.45062096106945
C         8.87837935785969    4.57913773042615    6.92311582191325
C         8.51387009768930    3.30743446942811    7.37895322036189
C         7.13170771399421    2.91187516485706    7.44794575148875
C         6.13948879082005    2.92294746483067    6.36143408500128
C         5.33426208039605    1.81375699846915    6.34637261215870
C         4.31563360350092    1.36291674434473    5.46625079525972
C         3.79668915385609    1.97827307636439    4.37752240658783
C         4.14100184796335    3.27099456461136    3.90166275731775
C         5.06503525369792    4.13388039642220    4.38298398237524
Fe        7.51394276537552    4.70769361708190    8.69939773644709
C         5.80382976169724    5.26710702774651    8.69785219319278
C         8.28456359147802    6.06491586645329    9.52778273231911
C         7.59287010263483    3.79146406061558   10.21599066507674
O         4.70514724097941    5.58321236912486    8.75091625207330
O         8.73834160851011    6.93608864733307   10.12195862714871
O         7.58829089854498    3.27915062497807   11.24259203380147
H         6.49869735168889    6.04125873176826    4.98589034193991
H         8.25927035371108    6.50822041837178    6.32942472327635
H         9.91767867696848    4.88977360653150    6.96325410149322
H         9.27939142532804    2.61087318106338    7.70797366498688
H         7.02724875037505    1.99022425903765    8.02354467361762
H         5.51789159928987    1.10531066367223    7.14718757193795
H         3.91978130962650    0.38513135222612    5.71164524659513
H         3.02737443725753    1.45875965190904    3.82166356726314
H         3.57003791901480    3.60953720785437    3.04572989300962
H         5.11461714065289    5.07802412847996    3.85074765199434

