67
CSD_code = FOSFOJ | q = 0 | S = 0 | Stoichiometry = C26H30Cl2F2N4O2Pd | MND = 4
C         1.98661542467206   -1.73044531859356    9.06685944732750
C         3.06921859369506   -2.80189831314510    9.22581336577648
H         3.48970376281175   -3.05980593236328    8.25664955300435
H         2.64605894916038   -3.69512155768419    9.67754353597851
H         3.87514859843052   -2.42765803647654    9.85360831157390
C         1.30271967217523   -1.45255718898100   10.40651379027672
H         0.58956396632354   -0.63401745133150   10.30185745268042
H         2.05779521424727   -1.17965014238087   11.15528560959114
H         0.77510997354953   -2.33713016973870   10.75442757133100
C         0.99519145151057   -2.09225427578170    7.93392318097617
H        -0.00322419263606   -1.73619751222266    8.18910497744570
H         0.94837086692519   -3.16610403151850    7.77094494399299
C         1.52512484348684   -1.33029353018329    6.71190387785919
H         2.14452593583468   -1.95040342258747    6.06099380306829
H         0.74668311852735   -0.88553526947214    6.09455337629555
C         2.36953553769788   -0.28313499774950    7.36457191014884
C         2.59931879788085    1.28241592493128    5.47902951316955
C         3.00369985545660    2.69829204168226    5.27372351074354
C         2.84886549115598    3.65026441833544    6.28198583686371
H         2.39186865673523    3.38735447805248    7.22720127457611
C         3.22081409436585    4.96224128076701    6.05620583954926
H         3.10221242886338    5.71604102581342    6.81813299750864
C         3.74582652161576    5.30618354310808    4.82201962199202
C         3.88608050187167    4.38392826477980    3.79874556181171
H         4.28403307124469    4.69528533701094    2.84625223167594
C         3.50128870943583    3.07764639637699    4.02947772167182
H         3.58706245649774    2.33299262475656    3.25328514741512
N         2.60835066356968   -0.49105619376108    8.60495975812234
N         2.84741427087344    0.84042999785530    6.76367578750954
O         2.12206719342367    0.57794627892173    4.62108161125287
Cl        5.31250882767256   -0.25742454490403   10.10454736130011
F         4.12251791670239    6.58009407093221    4.60795510013329
Pd        3.38579667527726    0.93896451923008    9.76692997560933
H         3.32588806151217    1.46995519061141    7.42449605964380
C         4.78484818396503    3.60840794219436   10.46740600312339
C         3.70223082043179    4.67976060108089   10.30788515089216
H         3.28128958845105    4.93770789156628   11.27683769274894
H         4.12555110191215    5.57299473150171    9.85632300612834
H         2.89660571748964    4.30540224314006    9.67974960697867
C         5.46937052171610    3.33047455471917    9.12808210302923
H         6.18291221707643    2.51233854197742    9.23321898377052
H         4.71466133096153    3.05688229427384    8.37917740909845
H         5.99662001001797    4.21520129555504    8.78000948829876
C         5.77576409727903    3.97042620182233   11.60072409002358
H         6.77427224653673    3.61417479617664   11.34615799573458
H         5.82265928424504    5.04430747941496   11.76349687564073
C         5.24509975198362    3.20876159936335   12.82260843526754
H         4.62519822782811    3.82902945253196   13.47288829065507
H         6.02317986206251    2.76431586287212   13.44063827801562
C         4.40116751543138    2.16135000268595   12.16969652701418
C         4.17065625592759    0.59599752762372   14.05533141133078
C         3.76607568027594   -0.81983904086425   14.26055320574372
C         3.92188545370034   -1.77199400992418   13.25261780587833
H         4.37974771010566   -1.50926329987441   12.30776237146193
C         3.54964497734284   -3.08391076052235   13.47825467257572
H         3.66892324118696   -3.83782747746464   12.71654687469923
C         3.02335073401176   -3.42760718728106   14.71196197436386
C         2.88214847428460   -2.50517009877817   15.73494348631090
H         2.48317525646385   -2.81632270081391   16.68707578466766
C         3.26724962251691   -1.19894616009640   15.50437327363533
H         3.18069509660180   -0.45415254968851   16.28034288814965
N         4.16295883659956    2.36901864283239   10.92913694625480
N         3.92318096471529    1.03778562764213   12.77050923522244
O         4.64739193302943    1.30058355421290   14.91346874115400
Cl        1.45986056009733    2.13673091125459    9.43042545375159
F         2.64634531210804   -4.70145374374431   14.92585842275941
H         3.44532350308018    0.40798777031955   12.10947789774533

