51
CSD_code = FOSJIJ | q = 0 | S = 0 | Stoichiometry = C18H28N2O2Zn | MND = 4
Zn        7.56217270943794    0.48313767235441    0.94830957820623
O         7.03868527498754   -1.10290118739851    1.81604535124269
O         6.53271294099490    1.87980440734090    0.52924733315881
N         9.32519250877410    0.63842036918974    1.72218962166549
N         8.29919218865022   -0.06702880340255   -0.98494202647122
C         9.66555537356334   -0.01468855077866    2.80295844791241
C         8.85299601602663   -1.02004895415161    3.35436652037621
H         9.21423168776390   -1.48708289442604    4.25808681727342
C         7.65133547712581   -1.50027286917455    2.85974902197730
C        10.97416228014528    0.27123303471601    3.49254820391615
H        11.80856346046296   -0.05798830008267    2.87258796866208
H        11.02977125800326   -0.24699375701403    4.44472223959606
H        11.08652129048116    1.34078911379549    3.66367638189964
C         6.98989670451823   -2.62453991566555    3.63112544838088
H         6.66071733688461   -2.25948085599485    4.60260169454085
H         7.68817742974264   -3.44256870044993    3.79335849332628
H         6.12640582190264   -2.98476090848936    3.07785544975129
C        10.23113624364552    1.57061408333991    1.09352804981991
H        11.25213821316390    1.16592548987805    1.07847665439423
H        10.25439874101467    2.51885151136786    1.64819456998097
C         9.77885334269376    1.83553810419633   -0.34245637378170
H        10.51043162103226    2.48499566688862   -0.82647651539624
H         8.81928305176982    2.35153093064927   -0.32147811814892
C         9.63696279109689    0.53088064843515   -1.12934447084362
H         9.84902428481752    0.70141843942208   -2.19392543065043
H        10.37433604694048   -0.18306524349012   -0.75361229511192
C         7.40705729617152    0.47572638793347   -2.00760147464446
H         7.75665665331126    0.21351332147828   -3.01497094310793
H         7.35656566441998    1.55582842164487   -1.91146570396785
H         6.40544382856620    0.07847757241685   -1.86031119675650
C         8.37612957125067   -1.51651010416355   -1.15037354347143
H         7.37949238617664   -1.94194748991154   -1.05487457092231
H         9.00167129337824   -1.94403594858808   -0.36917594395928
H         8.78793972963746   -1.78546635913780   -2.13154884505249
C         5.68044986955059    2.71515878997706    1.11427951951727
C         5.47181430169980    2.76596093679507    2.50389187145130
C         4.58010493673965    3.68744851673081    3.03001631101932
H         4.42735786890979    3.71551952254247    4.10105440583879
C         3.88707212190729    4.56508599756986    2.21831088456278
H         3.19627142953136    5.27669184977292    2.64637300481125
C         4.08852354829994    4.51914123935527    0.84984219904734
H         3.55028059063513    5.19977276904214    0.20360842181761
C         4.96923610160607    3.61320205389592    0.29020083838305
C         6.20098700801864    1.82122607527787    3.41292620007233
H         5.94674666481093    2.01607072325722    4.45265899446542
H         7.28361381239337    1.92499806489977    3.29840005473518
H         5.93162017614653    0.78846829271232    3.18119312250257
C         5.18714941282182    3.56178280641594   -1.19407641212898
H         6.22227231995455    3.80820189320109   -1.43245223343433
H         4.53329633598793    4.26347441514382   -1.70656564138145
H         4.99259298243300    2.55609172068474   -1.56443193507535

