86
CSD_code = FOSJOO | q = 0 | S = 0 | Stoichiometry = C29H47Cl2FeN7 | MND = 4
Fe        8.90069569750647    2.09531080495287    3.07598597309159
Cl       10.24469147564417    2.39504029265238    4.55085371461857
Cl        7.50912779827629    1.45667177983959    1.75231657016920
N        10.03406258753350    3.60615649220395    1.47588131877965
N         8.04682359003384    4.39501736565670    3.29247930029500
N         5.16515374631117    3.80214756507577    5.45881396309889
N         9.49320299122306    3.78493059470672   -0.90936305240087
N        11.05263157336266    2.35275406788117   -0.21835946253277
N         3.92616283785469    4.00900135458842    7.36043682154007
N         5.91990650173844    3.09246528709152    7.72094593855891
C        10.12643775052378    3.28190173221766    0.22091820877913
C        10.07677660378319    3.17694309879863   -2.01087703617053
H         9.79195526952765    3.41484888439149   -3.01350287326844
C        10.99874228432613    2.30135112224131   -1.59179574929924
H        11.62014742553886    1.66391120626381   -2.18105524314932
C         8.12964406321002    4.31498171630334   -1.10551122148064
C         8.20369972471477    5.47685780777128   -2.10509909022047
H         8.93102276306693    6.21433852443937   -1.77163358917615
H         7.23150678553484    5.95768523552489   -2.17277113773854
H         8.48352985440202    5.14264171453336   -3.10018838429809
C         7.26067249278131    3.17069997315325   -1.65261808705450
H         7.66893725084959    2.74839742584560   -2.56670091513936
H         6.25962183682215    3.53761922276671   -1.86348826918535
H         7.19015187386475    2.38305390773179   -0.90504027329128
C         7.45823823523827    4.80458571384997    0.17117603538046
H         7.56192331487637    4.06864004490657    0.96248162084440
H         6.39692233762532    4.93907565744553   -0.02386147592052
H         7.85518010673540    5.75881919312204    0.50232451762121
C        11.94476462205928    1.52979232049189    0.60189805835742
C        13.03814343674224    0.91051157435368   -0.27774891521800
H        12.63157314907629    0.17969261722970   -0.97246335952313
H        13.74936430614981    0.39546533780564    0.36268677016724
H        13.57502359677845    1.67771534301679   -0.83090468561378
C        11.13636868452774    0.40078978525418    1.24448733189290
H        10.37536817588256    0.81774211390646    1.91314565115610
H        11.78825831657665   -0.24346971109763    1.82709288321148
H        10.63578715955816   -0.19275200321247    0.48282202344369
C        12.62673221701666    2.38678885729569    1.67075803800510
H        13.13400176883004    3.23044139830918    1.20850876499381
H        13.35816520946801    1.78801962295504    2.20633141878310
H        11.89453519756624    2.76109286683612    2.37727442116728
C         9.95504714856830    4.98726217271093    1.89381927775162
H         9.93529348987961    5.67590781821581    1.03726860947035
H        10.89438542195662    5.18909279893297    2.43830121671876
C         8.84559191426620    5.35521340354087    2.84786533087091
C         8.69386855566987    6.67913453041755    3.25430521789760
H         9.37003494452266    7.43723217736729    2.88877053636583
C         7.67194371699755    6.99438725830399    4.13006880826953
H         7.53338783785749    8.01139037997146    4.46789381130764
C         6.82008920461586    5.99051419056062    4.56154551289448
H         6.00438935663834    6.18896744581491    5.23681455782384
C         7.04189381850820    4.69556326609052    4.11715793502622
C         6.15671030297827    3.52780845101927    4.47902253142459
H         5.60291355994400    3.28554151677277    3.55685997972402
H         6.82426505419387    2.66967323296186    4.66545452424925
C         5.09490019930073    3.61860211273627    6.72131730235090
C         4.03827464070583    3.73570956103626    8.70538143739173
H         3.27044840807646    3.95364538711965    9.41486604685821
C         5.24121634975734    3.18820825097288    8.92425660076364
H         5.65596260400459    2.86672451660010    9.85364454777508
C         2.73182839490865    4.49913925357004    6.67840053457187
C         1.62906174446868    4.80497595003416    7.69425643010218
H         1.32962676589371    3.91005554735125    8.23466038978232
H         0.75913958540032    5.18293854196395    7.16301984848551
H         1.94823433860795    5.56499769511536    8.40384794789978
C         2.23590845507629    3.42115672554581    5.70861789836599
H         3.02093549084256    3.19857194864377    4.99350639483564
H         1.35477870839541    3.77035496140237    5.17776392686920
H         1.98270603793869    2.51335764627048    6.25209636900721
C         3.06918432306396    5.78258153204094    5.91328238839998
H         3.47031715728063    6.53125802288470    6.59338623859796
H         2.17517723747371    6.18132595696375    5.44164020597619
H         3.80664636644423    5.55461217172458    5.15160401075998
C         7.26118871324893    2.52001849270056    7.59379164426102
C         8.22047544837514    3.60916581421662    7.09894468145050
H         7.90220555633414    4.03119038817661    6.15450395845047
H         9.21826945534397    3.20062714945275    6.96792684339193
H         8.26324578284042    4.41564147309354    7.82974778407900
C         7.78951945906580    2.05714284767450    8.95720492001012
H         7.88955721827219    2.88909528183738    9.65071228220130
H         8.77645316644540    1.62753603505105    8.80346586774410
H         7.15145477163890    1.29360322551899    9.39687823599991
C         7.21789380480245    1.28310662993803    6.67143681662021
H         7.24574126279296    0.36844213483803    7.26011072901121
H         8.07179352973735    1.27447110457846    5.99428136464953
H         6.30048608356822    1.26327708911865    6.08956198007619

