54
CSD_code = FOSJAA | q = 0 | S = 0 | Stoichiometry = C26H22Cl2NPPtS | MND = 4
C         8.36557477147443    0.15210662544119    7.98929950879765
C         8.25342714655126   -0.76192045224561    9.03129191046694
H         8.52680875665516   -0.46985953638040   10.03332535282515
C         7.82058493565458   -2.04233576220957    8.75066765607325
H         7.77691548073315   -2.78244894132004    9.53526181737872
C         7.40618016052070   -2.38754303207755    7.47662105587264
H         7.05405020390672   -3.39123573662374    7.31743805202606
C         7.44695022523354   -1.47159506955319    6.41867670346372
C         8.01433927713242   -0.21773113425989    6.69644325257989
C         6.99115635533977    0.53300649535079    4.35539729823040
C         6.48594818254008    1.55432802323077    3.57348996809012
H         6.92645599750896    2.53903242473081    3.64852835616901
C         5.45354482847073    1.29862447476747    2.68944292056492
H         5.06335124967499    2.09130810513100    2.07213454874279
C         4.95636718176025    0.01229562030387    2.59353490835677
H         4.17024656877664   -0.21604626554767    1.88962430893965
C         5.44776749267635   -0.99968579445001    3.39929386633180
H         5.02119919971204   -1.98152318482361    3.29210809932830
C         6.47227190570059   -0.76530684122806    4.31892731894821
C         6.68405202088547   -3.16076752183177    4.81696812007484
H         7.49652919137847   -3.76380864025589    5.23247550322075
H         6.74605039521273   -3.24228494842526    3.72855513155020
C         5.33856900694230   -3.71771448116956    5.29515814829340
H         5.24403262379909   -3.67060156222221    6.37565325964524
H         5.25607654423104   -4.75655732940997    4.98591280604013
H         4.50401024190202   -3.16607343382861    4.87404399091199
C        10.47568538319968    1.76049538446635    9.14856672055944
C        10.92478739752494    2.90489819613311    9.80628417369985
H        10.30455627903370    3.79092211079667    9.80452782921912
C        12.15761451254562    2.89928390065533   10.42979624930939
H        12.50588681652278    3.78473694903115   10.94005363623342
C        12.95008523920965    1.76187254533562   10.39208928400275
H        13.91377021380371    1.75925635360618   10.87944265238366
C        12.51406028332882    0.63196178503279    9.71968640059147
H        13.13812766350261   -0.24887093376002    9.68067305270752
C        11.28196540394128    0.62859758895611    9.09007537708291
H        10.94464696307688   -0.24933331946566    8.55608187224173
C         7.70381772220388    2.41405009679778    9.53662297942871
C         6.54453882047906    3.02427844392741    9.06731393753501
H         6.43175488540081    3.18882324975744    7.99851456505014
C         5.57340778123145    3.44338015409068    9.95619302794929
H         4.67866957696674    3.92556533164474    9.59227133183742
C         5.75728578545793    3.25386254729740   11.31689165646453
H         5.00302586052434    3.58677002675045   12.01435896229976
C         6.91218066150600    2.64970059504797   11.78685752161328
H         7.05620551194682    2.51236701765353   12.84859024876338
C         7.88789994258786    2.22724611328803   10.90162554845593
H         8.79679484673468    1.77184152381005   11.27021304711071
Cl        9.10702945481168    4.89522251041574    7.44727550083624
Cl        8.53815709165307    4.14847293443598    4.37614129311370
N         6.94998381516604   -1.77614516267181    5.16136174817577
P         8.89374014226781    1.87222971212794    8.28075305455786
Pt        8.71059714389966    2.97008851315173    6.31489307407657
S         8.45816485710734    0.82756373059829    5.32187139177843

