45
CSD_code = FOSLOO | q = 0 | S = 0 | Stoichiometry = C16H26Br2Zr | MND = 10
Zr        4.45765252331451    3.54047057742630    5.22539271860498
Br        5.85479110113263    1.44495009793604    5.69745625223147
Br        4.10584426828936    3.96236468339255    7.72127002064563
C         2.80484877411120    1.06674182509340    4.40128514530375
C         2.28965686343221    2.07482098200125    5.15029012519185
C         2.31944822506058    3.48070500951531    4.69722903715098
C         2.77309780582548   -0.37367100665336    4.82781003140349
C         1.69480315551724    1.78110261544138    6.51190282447020
C         3.48919989743736    1.34566133250731    3.08088697466467
C         5.03419222261090    4.80492087823061    3.16398778449738
C         6.23390119669352    4.25725076349089    3.70254608046048
C         6.46074797785431    4.86387212396790    4.97322589999568
C         5.41137846501881    5.79627245677779    5.20807190954958
C         4.52000691223066    5.74621402430152    4.10252284495102
C         4.52317977900913    4.61603815359265    1.76073473660773
C         7.16295960565594    3.31274052012211    2.98830819064238
C         7.60551457488576    4.60459246178878    5.91609048929947
C         5.33561954518253    6.78226773365528    6.33880689047672
C         3.34851963103471    6.66535093773197    3.89821629337218
H         6.61663287105359    2.58142932240784    2.38855987524596
H         7.82125969632276    3.86822313377250    2.31594543842679
H         7.79030575594038    2.76453404688734    3.69043425326067
H         8.18600127579979    3.73662759669369    5.60449292564313
H         8.27846862282416    5.46406810424843    5.94893468979638
H         7.24334549010433    4.42397404318455    6.93493115568520
H         5.93135556516280    6.45586656792257    7.19005902499683
H         5.71788419454942    7.75232234162760    6.01155488499087
H         4.30778361050656    6.92635655530950    6.67608153533351
H         3.69498264014854    7.65604601668204    3.59507671479012
H         2.68338070418139    6.29290141764613    3.12076278564977
H         2.77470964089548    6.78463715732754    4.81961573448225
H         3.43711164246512    4.50765380793075    1.73020952623801
H         4.78045529585142    5.48724165703463    1.15384139630233
H         4.97094410941558    3.74364862753483    1.28665768704235
H         4.08799822753966    0.48463110410059    2.78690400132871
H         2.75965642154034    1.53703485436758    2.28765992031673
H         4.15761312118336    2.22371163956687    3.15322396894744
H         1.40995509582928    2.69928415314452    7.02508618601756
H         0.80028159055053    1.16525995246672    6.40841510331607
H         2.40331328793928    1.23807407483394    7.14231402949421
H         1.90301060567211   -0.59114106923089    5.44237072524290
H         2.74866217659949   -1.02367667477205    3.95483217705958
H         3.66634742774892   -0.62442026855645    5.40507227747716
H         1.64924478362753    4.11870503915317    5.28875953029758
H         2.08113362225129    3.58404062839733    3.62927020309185

