77
CSD_code = FOSNEI | q = 0 | S = 0 | Stoichiometry = C28H32B2FeN8O6 | MND = 6
Fe        1.37096945649471   -1.16979198404790    3.93896569807430
C         0.69422657693292   -3.56079760628664    7.31785058293203
H        -0.02590569243532   -3.01973700244777    7.93962639017966
H         1.66818165784432   -3.45685199829073    7.80286070681471
C        -0.56327885094978   -4.78056308815872    4.83317926084137
H         0.04085170393322   -5.57368852146201    4.38150826737186
H        -1.44855866267809   -4.66095752821906    4.20302404386771
C        -1.57638748474606    1.65973072661527    2.99043878808683
H        -2.49767068950287    1.31685747116379    3.47172657309832
H        -1.68320746516109    1.44983335722540    1.92309115087629
C        -1.36153285480749    3.14800521897967    3.25772941133293
H        -0.58097995580015    3.53121773188200    2.59763572299648
H        -2.28204056707778    3.69207142503657    3.04166808149769
C         0.44481006927919    2.78985221713580    4.96025481160453
H         1.20830190492589    3.41633175071702    4.48839230815959
H         0.68298517857131    2.75201094161606    6.02652455324012
C         5.45713213072411   -1.35465207328848    3.01148293663990
H         5.82782631271644   -2.28898353113723    3.44459086255304
H         5.81696100854666   -0.54607190119865    3.65315281716293
C        -0.94522123837893    3.37130975308468    4.71060791151555
H        -1.66918300104905    2.88844107046248    5.36965017976640
H        -0.93919302839755    4.43743763965704    4.94128830641991
C         0.28174871652715   -5.02499354541881    7.18183225740141
H         1.10752418321534   -5.60200074484801    6.76110122102431
H         0.05541395614124   -5.43151622558641    8.16852185661378
C        -0.93576669808251   -5.15004165553614    6.26753546141470
H        -1.72328110802000   -4.48430021883801    6.62563950841482
H        -1.32140698250217   -6.17014135080368    6.29080662891615
C         5.21493401035186   -2.17267732934102    0.65340185232825
H         5.29083784981435   -3.18324853091130    1.05908498037199
H         5.67157275766670   -2.17285587569069   -0.33726577986219
C         3.74501495484226   -1.77549553176939    0.53508785146929
H         3.64447399786596   -0.87311544215290   -0.07612433131704
H         3.15141953064129   -2.55345765263895    0.04780998522210
C         5.95384033898714   -1.20389622386578    1.57515514744891
H         5.78319702271980   -0.18150462558587    1.23281913902010
H         7.02721163635842   -1.39525723661114    1.54060709726194
C        -1.18244612296473   -2.57599511906592    0.38669041294870
N        -2.38251822439951   -4.31951366058861   -0.75369416608133
C        -1.63862944237868   -3.88555083182317    0.24894096209975
H        -1.38249706916639   -4.62423776886870    0.99611946689386
C        -2.72094384850283   -3.45484635096002   -1.69539737499985
H        -3.33225108062712   -3.85150158163510   -2.49666599395878
C        -2.32927092599079   -2.12606642053558   -1.67823759015353
H        -2.62647388983385   -1.45431108361304   -2.46990196495195
C        -1.54951400316574   -1.68768197049575   -0.62065953683099
H        -1.21931389528356   -0.66070134468277   -0.56887500498837
B        -0.29385865615400   -2.10415875554114    1.62608365793007
O        -0.02742180014293   -3.23913290972549    2.56126893920889
N         0.51466144527805   -2.83513387946800    3.73016632158810
C         0.22403519774067   -3.51077958827311    4.80640858404227
C         0.74855820530066   -2.90619589040924    5.97554460721001
N         1.26419900244453   -1.73327669443445    5.73507697880992
O         1.90803599081107   -1.10204016544016    6.74009952392884
B         3.03486254846122   -0.23548893695786    6.25249081386906
O        -1.00994390771488   -1.01433066773042    2.37463315601360
N        -0.21990047301554   -0.40035828998538    3.28115480394720
C        -0.43421134583375    0.86122732955405    3.52983895900855
C         0.54557433652666    1.41106774089781    4.39309214343738
N         1.52493864448102    0.58074261793152    4.61821992897612
O         2.46415703690108    0.93640869938071    5.52060038568522
O         1.01758427151929   -1.55830923766073    1.13448100394284
N         1.89718707415729   -1.34373002311292    2.13630975523189
C         3.16665843050154   -1.50084135607432    1.88527925574566
C         3.96346153500227   -1.37421068658589    3.05026232484146
O         3.87511121680724   -1.04196195793685    5.30134200281836
C         3.92401376921206    0.24115783893284    7.48972691477739
C         4.19853253707129    1.58513140110663    7.73611863126993
H         3.80457457596024    2.34316325229177    7.07300222438268
N         4.92550975124707    2.02969561999519    8.74645693431356
C         5.43070387279595    1.14142600938679    9.58601683005294
H         6.01784397245849    1.54848366108031   10.40004099551389
C         5.23474462427326   -0.22338085956013    9.45128783368139
H         5.66749158274401   -0.91420067313249   10.15967521288685
C         4.47103687216303   -0.67258268700718    8.38652084714778
H         4.29453576686344   -1.72831166221709    8.24295863154782
N         3.24336174894200   -1.28727499647719    4.13336034745155

