43
CSD_code = FOSPEJ | q = 0 | S = 0 | Stoichiometry = C17H21ClIrNO2 | MND = 8
Ir        6.21621922910535    7.81539887746931    4.60618888174931
Cl        7.01869709775334    8.52643376697932    2.54212106085938
O         7.75567333370291    8.88681767552069    5.58657753446397
O         8.97571822843430    9.14625993043905    7.40361172452382
N         7.94206362714760    6.48294901234967    4.46812295181116
H         7.87690364231534    5.72025303317641    3.79442298370251
H         8.66431015934044    7.14007979857318    4.15221536672297
C         4.24697345280162    6.93141408426590    4.20028326810376
C         4.12188508192984    8.36492427056514    4.23457744616508
C         4.50019786958273    8.80342674953085    5.54269000390403
C         4.78656944649927    7.63314438882497    6.33829318101538
C         4.60137451084336    6.48989531150164    5.52539127158018
C         3.78139237128423    6.07480045483264    3.06662254829126
H         2.69170149578323    6.01846133120621    3.06730915298867
H         4.17524416877299    5.06471862213006    3.14355307987446
H         4.09910390500506    6.49938486849781    2.11734479208151
C         3.57635542162699    9.19119861176125    3.11763517456242
H         2.52717287599456    8.93976207737899    2.95824232272162
H         4.11933049073518    8.99427090555206    2.19524410067974
H         3.65493408555371   10.25142980879621    3.33833801997418
C         4.46701658729572   10.19142785061623    6.08780444953114
H         3.68295420574627   10.27471246762000    6.84151831217051
H         4.28225420400902   10.91959041855192    5.30353120805041
H         5.41828277717901   10.43316844331686    6.55956140506712
C         5.09186918739354    7.65921538352136    7.79774804412389
H         4.18219192639978    7.86372618389350    8.36460634320640
H         5.81086102195052    8.44424488966333    8.02471112786586
H         5.50145131718384    6.70915871888963    8.13249671478031
C         4.68590060244921    5.07324113412676    5.98419552229571
H         3.75537432804174    4.79704923161544    6.48215484455236
H         5.50083379408376    4.93513690085241    6.69282497469053
H         4.83553914024712    4.39594884877988    5.14719304115121
C         8.41880198329685    6.92638344010065    6.81915294483920
C         8.19136037292605    6.00982289960285    5.78838844813680
C         8.16784792320353    4.64811591606389    6.06311333424456
H         7.98747267046678    3.94479349182935    5.26161838549828
C         8.37852692237474    4.19424748661492    7.35419092109762
H         8.35601536852784    3.13407857092988    7.55773421025277
C         8.62417886289082    5.09688347368378    8.37588828214325
H         8.79664131261425    4.74230708262377    9.38051714273633
C         8.64437974579360    6.45354069768300    8.10414252445625
H         8.83478491674544    7.17970499835816    8.87995039531200
C         8.39554033496219    8.43877789169756    6.59967255802319

