36
CSD_code = FOSTOW | q = 1 | S = 0 | Stoichiometry = C15H19MoO(1+) | MND = 12
Mo       10.88677574451787    5.75096169820042   15.27811412000427
C        11.70134490844397    5.53840301747140   17.48753544617337
C        10.33340232267573    5.83874285067329   17.66039023007137
C         9.81984518960515    6.91065247937281   16.90485734712563
C        10.74378484364841    7.77592307323151   16.17095134068009
C        10.39133981686317    7.98525507052815   14.82658824150873
C         9.34644240062640    7.15049265863813   14.33106063045807
C        12.23890057122218    4.28413614680771   18.11334822802387
C         9.41825759104078    4.99082872343698   18.48330075045335
C        11.12917599867894    8.95289989220074   13.96243636998031
C         9.32543766761399    4.60506892142188   15.39791016244940
O         8.40486697688075    3.94075696299343   15.43613171966999
C        13.13144237978049    4.98772813879643   15.08346752148788
C        12.19867648771661    3.98107974455908   14.69320269997621
C        11.53234062282304    4.45252229868806   13.52158171537705
C        12.00052077717609    5.76118170644591   13.26091311830946
C        12.99263558552411    6.08009088953083   14.22545449437751
H        12.39592883819070    6.37463551525561   17.55331650262802
H         8.77800324900792    7.21200853827992   17.03711415278154
H        11.48955369256312    8.38655555068405   16.67529554746507
H         8.37986199652477    7.17277740831777   14.82423162268530
H         9.22680060064048    7.16682064936559   13.25143773430491
H        12.12750357267942    4.33844004156107   19.19773401564017
H        13.29648423251789    4.15120733413320   17.90481752955530
H        11.70197466314881    3.40088988353493   17.77050905140289
H         9.66826864656602    5.13550757594947   19.53578950360757
H         9.53138552601387    3.93087727234730   18.26829961642288
H         8.37684219683308    5.26933709546840   18.33680405936198
H        10.58996153526133    9.90215058986470   13.99621970716610
H        11.15598140202545    8.63884728407075   12.92134685330524
H        12.14160951322820    9.13954849464704   14.31653795008798
H        13.90758334947588    4.86954299419751   15.82378358037192
H        12.22984202878706    2.94698358897416   15.01482363117169
H        10.93074760303275    3.85058127085542   12.85096289439906
H        11.79349938542644    6.32638673100160   12.36156477850833
H        13.63377808323862    6.94927790849391   14.20076713300740

