95
CSD_code = FOSTAJ | q = 1 | S = 0 | Stoichiometry = C43H43CuN3O2P2S(1+) | MND = 4
Cu       18.68527374612817    0.56278356581933   21.65648965909541
S        16.59690924663941    2.25644982550751   22.20666090646621
P        19.23376178541470    0.63490864046653   23.86606132290845
P        17.59671532315139   -1.31047173660857   20.98044593672120
O        20.41942514837672    0.17316030773330   20.48211158757824
O        21.16657509112771    0.30766205409944   18.37328454801088
N        15.39944342345071    3.61489705920804   20.28895828287131
H        15.28975248036220    3.84555685891315   19.31113592636471
N        17.35133361846208    2.57027685469016   19.68776292445722
H        17.19868034868774    2.95949774478190   18.75683844919414
N        18.41344320867291    1.80147445771071   19.89802393101431
C        16.42407433207274    2.83699707527776   20.66923545715886
C        19.25622064251867    1.54251091282625   18.94905031589654
C        20.32374640739615    0.62686187768126   19.34532217578087
C        22.19871691353071   -0.61216967956891   18.71044793818914
H        22.77121405760062   -0.76667753476494   17.80017624552359
H        21.76501289516798   -1.55222422761512   19.05683425407326
H        22.83366536885248   -0.19949523797492   19.49664422989851
C        19.17777583710814    2.07744226376403   17.55409837601326
H        18.24220937362213    1.78298965325724   17.07715341326404
H        19.99907142134891    1.68502426806668   16.96530164419678
H        19.24188049412480    3.16682537565791   17.55692223034182
C        14.27070583492246    3.90583922568846   21.14913915786588
H        14.64751410330695    3.97267978133231   22.17104392582989
H        13.86485574184364    4.87368642244565   20.85049683878295
C        13.20101706555287    2.82240708095401   21.06190215730217
H        12.37654540504452    3.07155423903669   21.72202799032841
H        13.61489424036745    1.86445379362368   21.36809126277635
H        12.81793385938173    2.73473135852220   20.04758683245228
C        20.68776266882900   -0.23609753500383   24.53324747770218
C        20.74656690046424   -0.79237852365597   25.80551160223240
H        19.88687536815315   -0.75206174781599   26.45906475795952
C        21.91031122028093   -1.40882082856460   26.22947000194762
H        21.95603499941102   -1.84357770477630   27.21680029167052
C        23.01527558081202   -1.46853175058074   25.39577335613704
H        23.91905916258941   -1.95292837881446   25.73333478833274
C        22.96143528957351   -0.90802640758347   24.12929620568336
H        23.82449796064687   -0.95358696519614   23.48129810712870
C        21.80053777560616   -0.29421692678799   23.69849349285097
H        21.73634021072897    0.14298875284512   22.70987736363980
C        19.51600845663864    2.31402416454223   24.50603468281311
C        19.58162514700644    2.58159419199069   25.86990223009556
H        19.43982862750135    1.78269629375713   26.58381514720067
C        19.82073649675038    3.87226461261393   26.30251483319182
H        19.86769421591227    4.08427655531297   27.36006599445275
C        20.00041825099790    4.89454475570347   25.38281358082018
H        20.18595942778201    5.90060523849850   25.72725551363969
C        19.94395830882684    4.62825195968091   24.02474666002674
H        20.08699623044821    5.42623558904063   23.31109193937438
C        19.70402218873717    3.33869032017693   23.58589026947562
H        19.65225222144289    3.10819561191427   22.52786530160450
C        17.83541160341275    0.01716823816430   24.84128088895256
C        17.68291804207566   -1.35852882522736   25.00971563022474
H        18.46158599342190   -2.02850629327615   24.67294735358786
C        16.54564393371086   -1.86114706921821   25.61281199041705
H        16.43643509820033   -2.92728435664432   25.74478085378674
C        15.54763634249221   -0.99983640680651   26.04110015958342
H        14.65940121518148   -1.39491570374862   26.51038704641803
C        15.69022744948383    0.36721125676205   25.86579024071258
H        14.91259217382694    1.03912593442045   26.19676445154696
C        16.82540339300996    0.87803708908800   25.26229100479276
H        16.93053990691320    1.94286013413251   25.11125930350575
C        18.29148456641226   -2.70112910241175   21.91861482214421
C        19.64732420013517   -2.62086490309141   22.23380317789239
H        20.22179866964061   -1.77306239232196   21.88287936479765
C        20.24330221868734   -3.60941937671469   22.99390209766295
H        21.29206108587092   -3.53959054721073   23.24241805122620
C        19.48567302187864   -4.67723443430111   23.45088072124994
H        19.94620553774578   -5.44518542086897   24.05351988082260
C        18.13721876745122   -4.75666619708011   23.14140979893985
H        17.55015787308479   -5.58901849866528   23.49955911929835
C        17.53363823436321   -3.77160617526326   22.37885634213732
H        16.47955353699403   -3.83055349274547   22.14878050276521
C        15.80154287532942   -1.55578714598079   21.12085753739952
C        15.17709757608454   -0.94072036770238   22.20278758897914
H        15.76546566726954   -0.33878240855026   22.88229050175167
C        13.81749495775145   -1.09626100476793   22.39746203447028
H        13.33866316171494   -0.61925243152740   23.23918735984377
C        13.07567137934335   -1.86056432539707   21.51053511760884
H        12.01324739292637   -1.98052973461616   21.65847076640501
C        13.69546930030430   -2.47347797107583   20.43284060339984
H        13.11671348371435   -3.07306485545940   19.74623978390444
C        15.05659401455281   -2.32637004674374   20.23333324020695
H        15.53982628431538   -2.81073931612246   19.39610795434767
C        17.97376770387978   -1.70855405418018   19.24914503216364
C        17.31872968167986   -0.96817289976197   18.26471134555842
H        16.53241083464213   -0.28255132605127   18.55977643283056
C        17.64958584965146   -1.13069085116563   16.93356070807793
H        17.12422204394431   -0.57365036132057   16.17107144094741
C        18.65617849769956   -2.01356540504585   16.57347560800472
H        18.91876354193965   -2.13680001151576   15.53414772064549
C        19.31927885697397   -2.74094562028275   17.54759430063753
H        20.09856552888416   -3.43345914743677   17.26558468769661
C        18.98484972668237   -2.58989945186632   18.88233209127243
H        19.49788465364006   -3.16408827799196   19.64142382312090

