38
CSD_code = FOSVAL | q = 0 | S = 0 | Stoichiometry = C12H18BrN2O4Re | MND = 6
Re        8.26252745771970    0.87862813327521    5.03821018255924
Br        8.47416815907561    3.41894854734964    4.95746164258213
O         6.40218107881508    1.32126320113871    7.46368518040004
O        10.66514605892743    0.73837067342571    6.97796323960403
O         7.92580335527001   -2.18668894225433    4.93969689834221
O         3.44599375149618    2.41557179454936    4.34155772552927
N         6.80553797955135    1.12172907997722    3.25173871198522
N         9.61128818839448    0.97194940349093    3.17852030863516
H        10.02346409739438    1.90839969483951    3.26715996416543
H        10.38952797416284    0.31124123729320    3.14270640726392
C         7.07705783846104    1.09936938019110    6.55956442126458
C         9.76009686267735    0.76072961113741    6.27705241889675
C         8.06195705073405   -1.04374688559365    4.96044803235102
C         3.33698692292745    1.06777272683952    6.30679013336655
H         2.43499851691081    1.62187658352226    6.55322299016212
H         4.11454675667027    1.34664236016979    7.01705233480267
H         3.16585024076229   -0.00125826226712    6.39843162373517
C         3.80157519180859    1.43118531531325    4.92834758435487
C         4.77076806879475    0.40226953552459    4.32545209549346
H         4.14983080354412   -0.42702086955695    3.97243888516197
H         5.43269567373136    0.02426306993118    5.10875072023082
C         5.54423524857351    0.95386878918379    3.17205850421703
C         4.71472183959347    1.29593323280711    1.97093831529123
H         4.79996922557782    2.35927187084046    1.74932357162281
H         3.66847562528633    1.07652656367491    2.15671895239563
H         5.03881800594621    0.73071090278559    1.09639580796187
C         7.53457091383616    1.66955061444963    2.12344885616826
H         7.75111431390744    2.72200791980646    2.34842059073303
H         6.96129396176715    1.63253212719829    1.19528988785747
C         8.86495319278161    0.92071468467047    1.90838462344359
C         8.59934948204794   -0.54010829685086    1.54127925495640
H         9.53670117238995   -1.06908800155228    1.37951023796426
H         8.01300099268939   -0.60025953185014    0.62773361647014
H         8.05375294501603   -1.04343964965912    2.33803633007982
C         9.66260775294092    1.60947262307542    0.79737319300761
H         9.84423091964462    2.65459797063295    1.04354204506500
H         9.12082386040404    1.57200307927861   -0.14424131247925
H        10.62167851976376    1.11380971320555    0.65653602435878

