74
CSD_code = FOSZOD | q = 0 | S = 0 | Stoichiometry = C32H37IN3Rh | MND = 6
I         8.92473254267091   10.60275963281733    4.02237979582320
Rh        6.41319637992688    9.81083838764688    4.37006226953178
N         6.81814654974124    8.38999855247186    1.72899840104496
N         6.47409726159276   10.53101654828094    1.50500868183090
N         3.90809279044103    7.98797272720415    1.00072445416604
C         5.93395920845014    6.09935223644550    1.69234580676070
C         6.68991139793367    7.10835898294922    2.30881495835046
C         7.25763687862119    6.90254573092647    3.56166599972860
H         7.88453781249361    7.67038960130194    4.00145901982784
C         7.05245310701000    5.70914069658450    4.22957345020823
H         7.51141163437658    5.54400668101830    5.19263191052687
C         6.24938417103996    4.73896230557397    3.66274203617741
H         6.05271512594107    3.81938066659377    4.19507821648959
C         5.69206872695592    4.91815558041558    2.40238097689220
C         4.80305720390591    3.83799958107969    1.85654702556177
H         5.37455692560271    2.92634107425455    1.68675607017331
H         4.33591331903449    4.13604984082174    0.92193826553605
H         4.02184945459008    3.60286179574528    2.57935156359850
C         5.44919551846029    6.25254342632306    0.29701669953233
C         4.48947335597956    7.22090125284199   -0.03816056468005
C         4.14951540801014    7.41059483502485   -1.37335088067411
H         3.42323116265620    8.15873667283500   -1.64796465714264
C         4.72049487438057    6.63403304424044   -2.36289136178527
H         4.44293670527052    6.79058947021932   -3.39465672085288
C         5.63236103166046    5.65473141284757   -2.02935863822803
H         6.07415428894605    5.04119103888298   -2.80065594853209
C         6.01212157800103    5.45911659806216   -0.70717482220194
C         7.05570326355127    4.41779292153529   -0.41812897140736
H         7.81736687711288    4.42784166616239   -1.19615674775558
H         6.60487544815651    3.42553997654539   -0.41654026992132
H         7.53382774158985    4.57520614083854    0.54525284249452
C         6.46352828631115    9.52186373431861    2.39987631205542
C         7.14285322081248    8.70333927909906    0.42450427321776
C         6.89405212948110   10.07758544610105    0.27668141277683
C         7.11382658165602   10.73077620447144   -0.92445521972577
H         6.91473812024111   11.78496025101601   -1.03700825155061
C         7.62730495111305    9.97893168315844   -1.96501539184904
H         7.81304762289829   10.45096949599621   -2.91764675825225
C         7.94938019571136    8.63533057759272   -1.79627939202579
H         8.39575393597411    8.09487780496394   -2.61670715952699
C         7.72924077445028    7.97931638829852   -0.59973639506661
H         8.02639469063974    6.95456689812400   -0.46379210727599
C         3.37633240736541    9.27594144618124    0.60945086218210
H         4.08897012093201    9.78178678727644   -0.03985750988820
H         3.23923032199003    9.87296875741452    1.51233417641682
H         2.40507901484609    9.21250442620130    0.09812164159929
C         2.94940577589868    7.23867443327752    1.79301647940161
H         2.06511430487393    6.95196470372240    1.20376174741874
H         2.61774640137775    7.85535192336365    2.62785655936818
H         3.41516343736853    6.33725370447001    2.18304624396495
C         6.21110692930983   11.90833667617211    1.81841246175212
H         5.95914066705360   11.98048373127636    2.88295379639183
H         5.38068844402012   12.28583234752730    1.21770046199593
H         7.10039778942681   12.51241188393914    1.62637785504250
C         4.29257824065624    9.93948936389938    4.55034882513309
H         3.86918297148369   10.24221742296370    3.59206906091370
C         4.69749128057808    8.60869802392481    4.67677709868623
H         4.55539258468034    7.95505646672709    3.81952894380177
C         4.75298442681717    7.86030643821793    5.98725902046849
H         3.73110474961169    7.64356336484301    6.32117891653159
H         5.24080654518814    6.90006049203515    5.80362258394094
C         5.51948924735017    8.61677246263547    7.08891537520288
H         6.01098956209169    7.89103391402409    7.74031009164499
H         4.82709339967822    9.18845370677088    7.71069020991062
C         6.56180852527345    9.55834373591100    6.52738793544543
H         7.59414153619034    9.27144562609463    6.73391670560805
C         6.30916677286525   10.88640048482685    6.24767707625316
H         7.14170865460432   11.58802051891962    6.29011399736840
C         4.96271693447116   11.55946125768026    6.38300133351910
H         4.74879803479158   11.72277248104802    7.44535101268797
H         5.02811877254447   12.54627984214508    5.91542721097342
C         3.81709238956125   10.76744997484418    5.72614628454049
H         3.05252871884253   11.47012938165120    5.38568241691806
H         3.34373278481243   10.10786737858493    6.45611094095529

