80
CSD_code = FOSZUJ | q = 0 | S = 0 | Stoichiometry = C38H37IN3Rh | MND = 6
I         8.62646750928209    6.66151795844433   22.39897094368978
Rh        6.09757637749209    7.46875583425468   22.49301494282190
N         6.45441087910079    8.28165402686477   19.62501020430901
N         6.26382102265585    6.12117070344040   19.84482352788821
N         3.52487402293856    8.28564661800669   18.75764294209038
C         5.38461576124109   10.42603062844189   19.15304854301344
C         6.20172207616874    9.63428753187045   19.93844595132068
C         6.74572280380838   10.12886155510062   21.14383580770089
H         7.45989984478250    9.51756531589558   21.68691826527793
C         6.43641331840927   11.38316599877121   21.58294228214352
H         6.87988512261319   11.77394270015836   22.48685972710560
C         5.53270569679264   12.19154461251759   20.86370897765499
C         5.01227842409845   11.71444061282249   19.63262334696038
C         4.09450783749488   12.52788318938324   18.93151009632218
H         3.67696929566405   12.16570417354104   18.00346370794927
C         3.72805978534064   13.75248882797012   19.41569578303849
H         3.02240572620869   14.36053227154138   18.86914858101824
C         4.26091256392945   14.23027885222964   20.62207384902705
H         3.96529459641472   15.20289841393609   20.98653672977056
C         5.14281553030660   13.46370441769167   21.33028138973920
H         5.55339388454793   13.81773495278008   22.26518416430687
C         4.93767938262891    9.99707058802345   17.80631869228025
C         4.07042302495763    8.93275591553108   17.62486960173990
C         3.75956244295125    8.50771135693081   16.31575942748448
H         3.09010412741029    7.67416211023616   16.17378190429645
C         4.27007759709375    9.14563497588353   15.22529370026763
H         4.01395849337827    8.81235241473511   14.22985138825706
C         5.12804899043354   10.25204277958833   15.37181039362550
C         5.47268670317941   10.68186771328466   16.67957749409244
C         6.38639883310126   11.75407800022822   16.80509332713622
H         6.69436399327866   12.07628384099151   17.78840429744009
C         6.89258574799723   12.38207754453714   15.70195750743228
H         7.58855828288985   13.19960457989414   15.82005797380632
C         6.52290684445188   11.97299807415787   14.41219180346963
H         6.93017460222520   12.48442044983673   13.55272123790285
C         5.66254005808274   10.92414716522251   14.25404352622129
H         5.37985112738078   10.58590872501687   13.26722407269182
C         6.17724284737339    7.28709026659347   20.51541739045259
C         6.65080883783384    6.34533546772536   18.54395201050106
C         6.79748110961352    7.73539618903241   18.40482406378765
C         7.31544729891016    8.27848626211725   17.24083190890320
H         7.52855825218022    9.33016348220455   17.15380910129723
C         7.57427074311012    7.41055364197037   16.19641631603587
H         7.96612910362228    7.80671103846255   15.27231576418434
C         7.35859365858406    6.04015205618046   16.31228222959217
H         7.57257463126537    5.39901251311734   15.47088180223814
C         6.91298728596047    5.47955136859456   17.49528592986821
H         6.79406383987056    4.41281406654241   17.60244993693980
C         6.09357049138354    4.82051334866663   20.43072205832028
H         7.02058359737581    4.24931180375586   20.34969489956839
H         5.28903053121583    4.27780712931076   19.92958496648901
H         5.85009928327702    4.94573233388386   21.49096437936969
C         3.10871001402618    6.91306050315836   18.56642522289564
H         2.14265071198743    6.81458151735486   18.05081371014231
H         3.00736884900063    6.45024459882405   19.54955760461038
H         3.87153410261488    6.37555582316383   18.00528624891678
C         2.50443535740812    9.06232793746063   19.43723286890262
H         2.87469618859004   10.06279356993183   19.64796537026755
H         2.25071701505635    8.57282383225574   20.37698771622908
H         1.58709695868377    9.14875301878394   18.83539469493660
C         4.01016799095503    7.13656036686500   22.56962055254236
H         3.65178919004452    6.71159644695534   21.63030985246853
C         4.24519127033863    8.51443748947485   22.59677818029105
H         4.09724501665404    9.05839289690271   21.66725471577769
C         4.07763630196962    9.36403893395613   23.83826863525679
H         3.27674716543224    8.94488217181930   24.45145870156368
H         3.76253341745827   10.36607636761714   23.53778450400315
C         5.37753931742541    9.47842356254480   24.65793844084281
H         5.91276899923040   10.37859997208655   24.34888549679067
H         5.14292781410744    9.59264913358227   25.72258888750212
C         6.29985473590366    8.29440115742194   24.48267474909915
H         7.35383363809299    8.53595011385970   24.62906280249223
C         5.90939665369260    6.97872129742999   24.61858273037387
H         6.67437711106487    6.23360871502548   24.83463153200832
C         4.50567626639615    6.56831969015389   25.00293660660166
H         4.06549530128368    7.34606690358473   25.62949663513000
H         4.55305561793828    5.65795419760947   25.60450171690942
C         3.61917064942330    6.30668541367056   23.77169757966497
H         3.69428807202320    5.25022616709968   23.49659254355329
H         2.56768243091180    6.49871180350537   24.01684283135140

