118
CSD_code = FOTBAR | q = 0 | S = 0 | Stoichiometry = C42H72OP2Pd | MND = 4
Pd        9.11702325478491    4.05162357669718    0.89231227493487
P         7.69009601512615    2.94438063484671    2.30247703702989
P        10.55655714971313    5.20776546872612   -0.43240738216629
O        10.48388750922099    2.44453466874723    1.18061321578932
C        10.49938856190309    1.57275267074276    0.22192818778180
C        11.40325617085920    0.48909755741560    0.25191487689064
C        11.44568999425748   -0.42894913099759   -0.77364487825028
C        10.59944354157619   -0.31934395590385   -1.86741341488797
C         9.69017714050526    0.72529407712172   -1.91322801628749
C         9.63184113981427    1.65024411501968   -0.89229994446176
C         7.98818248957619    1.11709736976188    2.54456953446945
C         7.42993040884860    0.47641482300241    3.81375389140484
C         7.96887214793792   -0.95027963010284    3.92900827778862
C         7.58166496460774   -1.78190917999077    2.70928629471400
C         8.06293967731304   -1.11266241631219    1.42492267554693
C         7.51195873711229    0.30722073519822    1.33663629975075
C         5.82527955596225    3.03495531248065    2.12709148360742
C         5.02555341143416    3.18720534209043    3.41974664654497
C         3.53073440784821    3.10096479203149    3.11284101257754
C         3.12412102970015    4.18481640479172    2.11929141485820
C         3.93413710732595    4.05810891029459    0.83245778069808
C         5.42817732040787    4.12727206394641    1.13375403745802
C         8.10201875625406    3.67793793657062    3.96280337970950
C         9.56401680633082    3.35432765606913    4.27948707711315
C         9.99402234985989    3.99806654101917    5.59491716009239
C         9.78586474180653    5.50810221148403    5.56503355233973
C         8.33357391935499    5.83550527567084    5.23667391800308
C         7.93563700975481    5.19815737326179    3.90896051586109
C        11.96562993389661    4.23430568269752   -1.19224412022400
C        12.99769973196568    3.86384586399531   -0.12529833742237
C        13.97048816672993    2.82382504889833   -0.67253914407562
C        14.67783691014261    3.36726121338169   -1.90918899146831
C        13.65340422384251    3.76223297334815   -2.96705380312474
C        12.66945096686540    4.80075928302108   -2.42526437707591
C        11.21713749714284    6.66804410098753    0.51016704345654
C        12.31948260380560    7.49791387362491   -0.13948792565993
C        12.58475362180234    8.73942752469392    0.71199363604933
C        12.96856015975572    8.34243031956070    2.13519311698220
C        11.87721134151644    7.48700550895600    2.77577683927877
C        11.61558031740501    6.24710157863891    1.92530352944281
C         9.73001301184597    5.97655295100845   -1.91963695682129
C         8.91594113664633    4.85942887943083   -2.57817718786923
C         8.16165633712794    5.35532290066743   -3.80701031794892
C         7.24347630424016    6.51156598090816   -3.42911420386779
C         8.06128376286337    7.63765827575729   -2.80808671700451
C         8.81434516679035    7.14883190911364   -1.57181673738418
H         8.16980304890085    5.20385377178007    0.76744878898676
H        12.06877212478853    0.40193138888746    1.10027112403609
H        12.15320364532908   -1.24667652958236   -0.72437502003753
H        10.64447324207114   -1.04158896224892   -2.66929270889723
H         9.01610831065196    0.81651965660496   -2.75612880228969
H         8.89459377722875    2.46912450531355   -0.91859890804593
H         9.08313133412879    1.04542768297042    2.56904475460489
H         7.71497023128938    1.03820207846890    4.70473323611981
H         6.33906493160007    0.44176212513693    3.76533103100423
H         7.58076683705513   -1.41920396407845    4.83672724613550
H         9.05786357917168   -0.91571936815245    4.00964652634576
H         8.01001366731678   -2.78277895299873    2.79319053017171
H         6.49386520068284   -1.88744292887950    2.67570447291212
H         9.15416777980735   -1.07611365140051    1.40730261265619
H         7.73795722107032   -1.69079340553690    0.55734986233617
H         6.41982546156605    0.25483285261208    1.31784851974361
H         7.84858024506640    0.77684929574464    0.40973092409646
H         5.54710283972770    2.07579147474736    1.67274562970240
H         5.29471959345519    2.40793172615865    4.13442478118647
H         5.23200216927481    4.15390194538845    3.88093155507008
H         2.95895120385528    3.20932710957867    4.03731725099546
H         3.30069313462648    2.11897941839445    2.69181174242558
H         2.05759239853253    4.10590666685055    1.89851200302200
H         3.30184040535257    5.16705638890533    2.56348963827750
H         3.65791757049683    4.85492953258778    0.13882749563658
H         3.70448992455917    3.10336613966684    0.35288262217301
H         5.67306139486048    5.10904207767549    1.54630203610696
H         6.00596094594430    4.00112384494973    0.21083400322800
H         7.44770041052606    3.26610338148108    4.74009423146365
H         9.71303091392250    2.27569958043746    4.34906159985166
H        10.18940789921571    3.71929776064184    3.45078267648729
H        11.04462617334103    3.77138541648632    5.78811625555021
H         9.40620178838791    3.56961077992202    6.41188416907664
H        10.43233695086348    5.94618784263654    4.80321701102479
H        10.05959030401990    5.94188550400610    6.52938855120140
H         7.68501046973367    5.45839359263841    6.03210361000078
H         8.19862564156919    6.91800199654872    5.18209194303904
H         8.57705005777254    5.58971502659985    3.10465177804076
H         6.90453036632350    5.46480139439981    3.66731268944221
H        11.47265702889652    3.29842217146543   -1.49684906320997
H        12.48406609627696    3.46509247735517    0.75289188457143
H        13.56478187400794    4.74963450095773    0.17026651789388
H        13.42101470618043    1.91625702665900   -0.93111696898919
H        14.70333336840760    2.56499921925647    0.09501028061784
H        15.27421457856261    4.24193871094286   -1.63513583516332
H        15.35711104335311    2.61453676372416   -2.31443203318237
H        13.09912232056843    2.87279264728170   -3.27640346427790
H        14.16042638859728    4.16524737672602   -3.84730262225704
H        11.95277299064201    5.03272222024489   -3.21432940993724
H        13.21021008365599    5.71473395010608   -2.17447949577767
H        10.32507477817543    7.30244579328868    0.62016527848316
H        12.02910299781811    7.79590083387862   -1.14959198718307
H        13.23918934139354    6.91505718403382   -0.20692134889941
H        11.68542212053526    9.35971333148006    0.73900325252308
H        13.38536011021651    9.33197268488859    0.26355163694084
H        13.90243257452441    7.77558989014025    2.11184041384145
H        13.13835514679487    9.23857017936585    2.73562067500141
H        12.18714086702143    7.19590042318074    3.78195627552812
H        10.95925153084559    8.07387530727388    2.86200134810791
H        10.79935221913355    5.64060679461331    2.35017959928087
H        12.51624449844649    5.63284151239847    1.90641516776966
H        10.49853942603237    6.33769942848376   -2.61147916854093
H         8.19308115794760    4.48804661597236   -1.83477270237970
H         9.57459454173716    4.03345998319587   -2.86025794710847
H         7.57970216127212    4.53760659126114   -4.23698070145435
H         8.87588050702578    5.69074186755069   -4.56378329675898
H         6.50082451586748    6.16359404532443   -2.70785842187344
H         6.71324329958133    6.87621873516262   -4.31127794426892
H         8.77754288747960    8.01215579520900   -3.54436095787331
H         7.40660386272845    8.46616961590433   -2.52935472371177
H         9.39623168157748    7.97991141971569   -1.16921211538211
H         8.09671958707385    6.82990563523780   -0.81052183941180

