35
CSD_code = FOTFOJ | q = -1 | S = 0 | Stoichiometry = C10H22O2Re(1-) | MND = 4
Re        6.39984307476846    2.87891655406062    8.75237769019160
O         7.96636017188658    2.34582942542877    8.99377317672122
O         4.74990046824441    2.70337922121824    8.96037764544400
C         6.45724026934819    3.36146609777497    6.59065768028157
C         6.90759880875044    2.25661711868450    5.62053102215423
C         6.68697848047757    2.73262029429543    4.17531586508576
C         8.39459296030399    1.95285460806919    5.81707865677521
C         6.09212131304201    0.98088978878586    5.84513795993363
C         6.64953665569680    5.02292534856159    9.25031767469399
C         6.19200724524931    5.49276491438649   10.64125167104879
C         6.83215256588303    4.63371406694054   11.73447634567205
C         4.66793543224505    5.40952290441857   10.75337388799030
C         6.62405760598641    6.95362978799566   10.84875780388734
H         5.43580713879033    3.65300894656282    6.30877837224888
H         7.09396589279053    4.23932182735391    6.40620070703760
H         7.02740290791742    1.97756931442903    3.46554100408015
H         5.63112198020364    2.92444523647167    3.99178260618062
H         7.23830221723588    3.65257631106693    3.98753528737825
H         8.70476097799579    1.09345461507799    5.22123826503239
H         8.99928080667140    2.81182232107022    5.53112516491167
H         8.57882108745247    1.74681025315046    6.86929221648570
H         5.03249598398105    1.17720529789427    5.69374941683944
H         6.40489982489599    0.18785976865800    5.16379286733707
H         6.22856637347090    0.63957009257816    6.87077276643661
H         7.72218718824558    5.24540591724360    9.16197902819251
H         6.13820489218409    5.65178690914797    8.50664833604167
H         6.54372415169088    3.59265389080584   11.59305037410249
H         7.91711595306037    4.69273720130064   11.67515766436618
H         6.51476338557778    4.95739108216962   12.72720919949803
H         4.19755221722372    6.12203836139415   10.07788365581282
H         4.34419313686502    4.41098461517557   10.46744664026313
H         4.33411582858148    5.61969279088278   11.77033677816592
H         7.70863738489012    7.04138250239717   10.81285112419909
H         6.20454583148984    7.59038568444149   10.07152930685158
H         6.28140978690926    7.32226693011803   11.81647213866026

