48
CSD_code = FOTFAW | q = 0 | S = 0 | Stoichiometry = C15H27Cl3P2Zr | MND = 8
Zr        1.83542610264437    2.76973774614718   10.97992148134211
Cl        0.61447704265907    1.33681460330270   12.32370922430485
Cl        2.45099602289525    4.18733939848172   12.70380505050408
Cl        0.14447870443997    4.22935480860894   10.37594434412588
P         2.80455321190511    3.13274208825442    8.50720858130939
P         2.60284686859392    0.44401890858614    9.80514341705686
C         1.90587537605505    1.64516543258506    8.73463272240088
C         3.89826352595336    1.51806490222718   10.42637983138573
C         3.97591247874530    2.81450288384369    9.84700709243359
C         0.63125119008640    1.32804904983653    7.97378965427750
C         0.87790845756754    0.12553365389672    7.05470472155428
H        -0.02455491905676   -0.12280229262071    6.50112943209194
H         1.17747047358030   -0.74220036598980    7.64187002106939
H         1.67139311576281    0.35144898112241    6.34530286806504
C         0.18893836045397    2.53536988138921    7.14495825202106
H         0.01619283191239    3.39678340892172    7.79224329559875
H        -0.73386883094860    2.31206024288265    6.61416685686482
H         0.95281698392232    2.79234568915644    6.41090381857377
C        -0.46287562644673    0.98012151191071    8.99516761438832
H        -0.65040343991258    1.82990155043641    9.66239825430468
H        -0.16717605923235    0.11616555013158    9.59617689237301
H        -1.39148549031805    0.73578483205991    8.48198467548657
C         4.72882823334553    0.85561080521254   11.53919270686322
C         4.30838636530204   -0.61366605375649   11.72896915716587
H         4.94836780537719   -1.07221231848766   12.48086212991567
H         4.41863916728354   -1.18330236178620   10.80588695872377
H         3.27665859047304   -0.69154931058922   12.07722037288892
C         4.43275441988708    1.53390452558751   12.88746012310729
H         4.95928427076343    1.00890056319308   13.68366799927936
H         3.35480357875812    1.47167674587748   13.09524256935359
H         4.73049200390747    2.57538970260478   12.91870930672463
C         6.22189629159169    0.81037829888299   11.18623087554932
H         6.79044849326856    0.41452500885306   12.02485381910123
H         6.62939196000949    1.77762530817050   10.92461447667308
H         6.36614774004212    0.15059269978168   10.33254418398585
C         4.96460863048801    3.99671176943316    9.98322629337295
C         5.63499240294192    4.23571055156711   11.34208515333305
H         6.30289892794430    5.09071812433315   11.24549473336025
H         6.23667651399014    3.40553050500948   11.68816661830107
H         4.88487012670354    4.48734017841755   12.08951882423939
C         6.03789947878298    3.81534812501277    8.89763226295903
H         6.71432147136938    4.66693887884976    8.88884980919033
H         5.56811118110909    3.73574627131698    7.91771920298477
H         6.61988329804288    2.91299369604130    9.06543971013927
C         4.19806569327061    5.30763646627014    9.69818540420972
H         4.83379619047782    6.15972436210625    9.93264103052433
H         3.29684088160126    5.37193277680469   10.32198821778934
H         3.91799990200772    5.39689221613634    8.64814995874136

