62
CSD_code = FOTGEA | q = 0 | S = 0 | Stoichiometry = C30H25NO3P2W | MND = 6
W         2.09785522784196    3.68668599214258    4.27351947672313
C         3.76394371069404    2.75423802586067    3.78613628026464
O         4.72708379400719    2.17452966771140    3.54963461679458
C         1.24116580032547    2.96591981572944    2.65467769456996
O         0.71408823197302    2.52727326170189    1.73124040526687
C         1.48635975822107    2.11446316824404    5.28834662177200
O         1.10820937361168    1.21629794201916    5.90269037682955
N         2.71455736106030    5.36386519873953    3.28898681239644
C         3.06212976964731    6.36675638051275    2.84215971139381
C         3.48838417234015    7.61070239283886    2.26306030636884
C         1.04682963707558    5.17335052648913    6.93018048337670
P         2.78220593006663    4.77639724261305    6.37039676760549
C         3.57454579746808    6.41256180832568    6.33935125331526
C         2.89225665520219    7.50685071181412    5.81468008856942
C         3.53262974811645    8.72311672211558    5.66670060070342
C         4.86575372117521    8.85395517545735    6.02090021903637
C         5.55958160506336    7.76036251628441    6.51480775927781
C         4.92216583688094    6.54303069867455    6.66570179238309
C         3.51555539131423    4.01800750793910    7.84959000047073
C         3.98610793923819    2.71494293202299    7.74628371941195
C         4.51768155873529    2.08287180365198    8.85696910361567
C         4.57735902450946    2.75085334601766   10.06871312794030
C         4.10751860321059    4.05182620068467   10.17399659755796
C         3.57615924425487    4.68778442709321    9.06842945811726
P         0.21308769288660    4.89252544549353    5.28654146134797
C        -0.40658833712046    6.53570623805801    4.77577915802672
C        -0.37446794277225    6.78732910947081    3.40737489254939
C        -0.80830876777911    8.00232503132080    2.90976523189191
C        -1.27689743768890    8.97523245537408    3.77766630574117
C        -1.31947398120312    8.72661452315260    5.14033764341315
C        -0.88968195604369    7.51127411299896    5.64130444222079
C        -1.35631492425962    4.08070736254109    5.72870718485245
C        -1.78810404217012    3.05772243086443    4.89240914475402
C        -2.96821133983002    2.39043564955539    5.16535385247627
C        -3.71885612321254    2.74132883955669    6.27528018999239
C        -3.28933970596502    3.75879251188415    7.11251875346766
C        -2.11165510529010    4.43074307499400    6.84232360728463
H         4.29589799158250    8.03616064794747    2.85988111279055
H         2.65297100465888    8.31140065455643    2.24002934503217
H         3.84344378283375    7.44134386508792    1.24632525624672
H         0.73053193418402    4.37947410761448    7.61753270910897
H         0.92200363701386    6.15195584066986    7.40091078132741
H         1.85584862596990    7.40625958335004    5.51800373727502
H         2.99006555370736    9.57058445513132    5.27105014109247
H         5.36512592509820    9.80502937953243    5.90643837961981
H         6.60218368068937    7.85818198281769    6.78015850621750
H         5.46351516072754    5.68568896361685    7.04274899954580
H         3.92865558791960    2.21103562965484    6.78945111719044
H         4.88393800136647    1.07012800237935    8.77780077924041
H         4.99115908586733    2.25861270099857   10.93657933429182
H         4.15695326532018    4.56871512836307   11.12169282896844
H         3.21403114753371    5.70535745600643    9.14072245515765
H         0.00065016153096    6.01742859439880    2.74378475081865
H        -0.78088812642977    8.19261760194301    1.84642545322205
H        -1.61133113390328    9.92784635750091    3.39373615430804
H        -1.68986344135333    9.48454607866661    5.81560183486359
H        -0.92791632507826    7.32989020154937    6.70637562697347
H        -1.17998158117757    2.78638053476339    4.03881991819411
H        -3.29896266291395    1.59247928730201    4.51740894429818
H        -4.63822678909693    2.21821129242876    6.49369642284387
H        -3.87420430818303    4.02667003518795    7.98087296838797
H        -1.77731609944613    5.21902136857606    7.50283730120221

