30
CSD_code = FOTGEB | q = 0 | S = 0 | Stoichiometry = C7H13BBr2NO4PW | MND = 7
W         2.71617320319832    7.61686125145600    1.26990251311758
Br        3.27868045627946    5.75072504211754   -0.43163823230914
Br        0.78701251394133    8.32524781893213   -0.27329898633888
P         1.05374667255989    6.06114554991500    2.32799998023261
O         4.42590894782460    9.33305941715898   -0.78732173333036
O         4.97545999291417    8.71734298530744    3.18507764986978
O         1.84423970206764    9.73506630598698    3.43318607030562
O         4.54012820614666    5.79103390544182    3.11229207056167
N        -0.57860218854662    5.18361151024580    4.65380448994019
C         3.80848597520790    8.75171707125183   -0.02766013392970
C         4.16159402577764    8.21291910902130    2.50117434116843
C         3.93099182303913    6.53982034296775    2.45264718851515
C         2.06923847132641    8.98474733955874    2.59306728288750
C        -0.58618703057310    5.06813317886011    6.11696803816986
C        -0.54372019318848    3.83735225598422    4.07554031790861
C        -1.81255075001349    5.85551515674873    4.23389294235377
B         0.72994244988287    6.04836593124752    4.22841893844064
H         0.55155307283023    7.16742028852395    4.59079905919923
H         1.68268939624695    5.55646112553770    4.74335512039784
H         1.30795948540971    4.73662346999684    1.96908216927888
H        -0.18177571687863    6.11362435692762    1.68115570325132
H        -0.56985411202227    6.06023811947415    6.56172480485354
H         0.29947479335403    4.53168428041507    6.44852919976270
H        -1.47664295865393    4.53568654556088    6.45638778647676
H        -1.36402615113860    3.23028522764290    4.46406232911627
H         0.40145055574606    3.35757401094718    4.32187410125094
H        -0.63510402883901    3.89399657255197    2.99173291212084
H        -2.68724734194215    5.27474243433492    4.53286204894021
H        -1.82409722268259    5.97833457891689    3.15256700558752
H        -1.86702204927285    6.84106481696942    4.69051502220604

