29
CSD_code = FOTGUR | q = -1 | S = 0 | Stoichiometry = C6H13BBr3NO3PW(1-) | MND = 7
W         1.78793709579346    1.24389614586686    3.46438634505831
Br        3.32502992138486   -0.24736943422017    1.95088034756757
Br       -0.22132148899327   -0.15753812480752    2.65022897298314
Br        2.06428129052237   -0.51408758078959    5.37008354285723
P         1.62173519794062    2.18371760592281    1.17299111289620
H         0.53816624074267    3.03874742093136    0.87093030469108
H         1.18976154758722    1.22418471201186    0.24862458199492
B         3.15039066422755    3.11691905192921    0.43203107031745
H         2.91709497593223    4.28515968319461    0.43579295184248
H         4.12317731537292    2.84726598112493    1.06117644020274
C         2.05843091998236    3.18137150277434    3.81987233857266
O         2.12983013795013    4.37983153499907    3.87092298357664
C         3.39977347586887    2.18793850293323    4.15151974647808
O         4.41140626440241    2.67951363676778    4.52519064333965
C         0.65315719817863    2.36486263025999    4.64812500250731
O        -0.02733440679177    3.04305309029616    5.32855095853273
N         3.45633629104585    2.69031819849578   -1.11468241881192
C         2.30479459971934    2.98465084827273   -1.96662126309688
H         2.06201760562183    4.04356814730467   -1.89977144010032
H         1.44211512469170    2.41153288271669   -1.63021982929572
H         2.51707967274965    2.72797558088320   -3.00781346638929
C         4.60407135222605    3.47430044886938   -1.57434055505290
H         5.46388268532609    3.25548248196011   -0.94609048285999
H         4.38176545232838    4.53593026944410   -1.49098551415174
H         4.84477851990765    3.23372816569142   -2.61297702168473
C         3.79269581807797    1.26808432072376   -1.22156306340752
H         4.05653565853149    1.01349248561660   -2.25037370518651
H         2.95476408799037    0.65055902018741   -0.90688580216076
H         4.62424678166246    1.03211079058580   -0.56228278119023

