100
CSD_code = FOTJII | q = 0 | S = 0 | Stoichiometry = C42H53HfN3O | MND = 5
Hf       31.67714573519123    7.54101616118360    9.46312420776300
N        32.20601294260309    8.97723172279766    8.17126116859484
C        31.14849665907185    9.45451201756204    7.32686503850504
H        31.03805704867185    8.86456561827440    6.39096745372806
H        31.32214020371055   10.50396569499276    7.00793047182299
C        29.85794834939100    9.40116301726519    8.05793042086508
N        29.72313441486622    8.80692145787352    9.22559198061704
C        28.39958201385420    8.97062843776128    9.57866536723650
C        27.69720017558079    8.53385909697459   10.69549378472713
H        28.18812099168337    7.96863927056488   11.47164569793694
C        26.35533084206333    8.84636683882212   10.77105261588446
H        25.78160789376004    8.51905826675525   11.62467246533714
C        25.71614535824708    9.57601229425686    9.76809864373911
H        24.66444061023754    9.79685858759255    9.86800343199979
C        26.39640844414207   10.01988780301202    8.65130515749245
H        25.89173409756420   10.58267810886703    7.88088272518060
C        27.74411599528623    9.70803138125348    8.56760629745765
N        28.70813695920951    9.97176667738240    7.61965340729278
C        33.47836566375801    8.83335848105604    7.48746485069052
H        33.38754055484697    9.28008766612647    6.48277605081989
C        33.92740457765441    7.39200643680643    7.26567199395838
C        34.44980564488497    7.08937091374063    6.01627571100358
H        34.42862709119082    7.86189463953687    5.26086532025995
C        34.99966279103988    5.85290365082380    5.71302489762819
C        35.06532831697898    4.92343610790611    6.74107990414623
H        35.52940537852255    3.97480329035899    6.54734648292523
C        34.55851604944240    5.16392119161428    8.00963757282464
C        33.91212638505011    6.39748713405875    8.27132999514963
O        33.33144825778542    6.62088664573679    9.44848473925856
C        28.53901121418973   10.66565052284473    6.37464560157516
H        28.88675225429470   10.04065298209677    5.55011757471207
H        29.10601547135386   11.59970487477681    6.37471931937171
H        27.48485595897017   10.89093758519466    6.23169258189253
C        34.58437590151067    9.67659797517405    8.20844398786782
C        34.82550042734329    9.17078770651988    9.62926486850181
H        35.30145776469032    8.19358902716027    9.61302780551147
H        33.87117842195820    9.09246906539493   10.15827023942552
H        35.47828830110980    9.85990996908834   10.16399424346336
C        34.09744799099899   11.12798105462064    8.27723920695059
H        33.93313838312529   11.52857982834844    7.27815768657746
H        34.83635739821785   11.75128593533828    8.77626445040752
H        33.16408668670458   11.17766289721024    8.83433895399868
C        35.89190722676860    9.62248361632322    7.41590016779785
H        35.75065060141201   10.00537497866929    6.40706798816469
H        36.25918576630139    8.60187015350460    7.34696414211672
H        36.64904676850013   10.23032495908889    7.90726170518735
C        35.53835652824448    5.58704646730687    4.31468632555281
C        36.67342113190136    6.57777961464165    4.01933433241467
H        37.46949163627406    6.46377112249461    4.75196636304392
H        36.32083817697235    7.60450327989602    4.05955852042367
H        37.08580284012549    6.39582610130138    3.02865668086011
C        36.09033384244154    4.16831730948036    4.15088940149569
H        36.93185446946944    3.99622065002201    4.81751881512285
H        36.43885176806286    4.03006036474392    3.12890444594986
H        35.32109303190248    3.42537816094821    4.34781778393419
C        34.40825797864667    5.77512174171187    3.29330892790080
H        33.59873436777100    5.07806366402067    3.50058204985896
H        34.77454425089501    5.58841934118814    2.28539857127989
H        34.01041738723841    6.78567790633254    3.32857785324057
C        34.74614558404669    4.14321746444097    9.13076126658910
C        35.54081909536192    4.81177408048206   10.26113344956197
H        36.51054947180069    5.14321951032978    9.89327550159688
H        35.69849040011335    4.10739370794536   11.07507720049321
H        34.99664926666756    5.66779602220897   10.64695555550769
C        35.52630982366470    2.90016575355194    8.68563599559827
H        34.99518865473659    2.35369814416913    7.90937878515861
H        35.64516324616124    2.23477440450249    9.53872313379030
H        36.51903806364519    3.16203266265615    8.32679462202415
C        33.38880097226401    3.67002314089485    9.66526891244323
H        32.80185600356865    3.22725407693823    8.86172245815872
H        32.83952808523195    4.50160924317774   10.10082652578680
H        33.53432220590350    2.91883287560165   10.43909889831092
C        30.38312083507872    5.84779736323229    8.77060155780651
H        30.97725517695742    4.92917959997585    8.79819905884731
H        29.46265873879700    5.71382152102665    9.34998941096480
C        30.08840365570081    6.24472525235201    7.39685163497657
C        28.84957248494496    6.80000310021177    7.03227539890036
H        28.06593331151819    6.87570732023244    7.77665422685916
C        28.59942177831207    7.22454321906826    5.74202726685521
H        27.62929569707013    7.63633878671797    5.49465633846830
C        29.57266418941109    7.10803943771571    4.76198562231459
H        29.37800476250456    7.44185875800648    3.75284763528843
C        30.78996588421886    6.52333176399868    5.08776228842208
H        31.54562111965095    6.39802930809268    4.32579484547147
C        31.04181780214881    6.08920991008745    6.37269025334588
H        31.98263129737256    5.60217309869936    6.59651014842509
C        31.65249795744476    8.19847737606830   11.59674795744847
H        32.40283851102036    8.91331403281528   11.94562634730339
H        30.64741010208548    8.56735640173254   11.82620752272418
C        31.88225234380237    6.85489466868387   12.13014741491962
C        33.13005362262066    6.45614560688419   12.63436969761904
H        33.93858528405481    7.17502776620386   12.66133903291728
C        33.33652946357143    5.17556559254750   13.10572602198918
H        34.30643224271282    4.89943130938712   13.49457011649292
C        32.30871894518155    4.24514604413821   13.09561678885639
H        32.47180274687246    3.24560793946364   13.46994831009309
C        31.06510854480148    4.61603834417121   12.60858061531802
H        30.25372612257907    3.90119473948974   12.60588298481948
C        30.85234861923900    5.89554563222879   12.13346088556325
H        29.86172449349935    6.18473755349398   11.79539986251030

