114
CSD_code = FOTKEF | q = 0 | S = 0 | Stoichiometry = C52H54Cl2N2O3Ru | MND = 5
Ru       10.05440039118884   10.13382374814888    4.52374462614881
Cl       11.60736599624594   11.24106493014828    5.81436274720346
Cl        9.21989027916914    8.85165107723220    2.82664089327757
O        10.54374491029866   11.69789676632623    2.97002288856872
O         7.76426060267215   17.36304152970988    3.75010334179773
O         5.57075470261454   17.40609693894302    3.26277292203851
N        10.53189000557204    7.72194177761497    5.99763453198205
N         8.74509340053229    8.60007490275359    6.83612823022740
C         9.68291691574854    8.75273331566394    5.90707173944009
C         8.92406727849413    7.39368819440778    7.64113497983732
H         8.05157561491640    6.74078327848952    7.54195522319863
H         9.03180256520859    7.65624405601225    8.69776502707692
C        10.19500828789584    6.77646466660886    7.05164928098986
H        11.01000825931934    6.70976317249541    7.77939089301737
H        10.02676778492524    5.78016470601197    6.63071888847681
C        11.67584504064272    7.56477172260982    5.16592383014141
C        12.90490571407352    8.09878776974958    5.57348855828747
C        13.98876208617811    7.99209651580310    4.71307322403578
H        14.93457473264508    8.42252025193586    5.01033445378129
C        13.88622342393345    7.34545489811746    3.48984719967212
C        12.68529063918535    6.73548231187616    3.15835884554095
H        12.60673887106109    6.17986047493045    2.23470721631105
C        11.57458180977002    6.81580390401349    3.98701846780451
C         7.63421243986955    9.44378488906830    7.09215192357873
C         6.43584472536749    9.21799138187865    6.41216183262573
C         5.34869313884534   10.02463323990308    6.70913935766946
H         4.41505697783866    9.86575498204325    6.18888720088215
C         5.43688462827513   11.04353911119313    7.64977878698297
C         6.64938013688051   11.26429212867434    8.28611479793825
H         6.73688915760083   12.07227988741905    8.99838756409770
C         7.76140905131401   10.47828403833890    8.01830705307182
C         9.08690909276299   10.76679247063337    8.65023637352881
H         9.42270291737078    9.93583709741604    9.26915288169262
H         9.03114425307871   11.65649753528488    9.27093308921739
H         9.83205700764882   10.93080659131433    7.86999311965261
C         6.36230718837517    8.17358212395220    5.34260346216574
H         7.13882053494416    8.36092590692188    4.59882818611236
H         5.39452236107588    8.19627135186185    4.84999336645843
H         6.51809621801394    7.17546339154792    5.74978725536853
C         4.23832182227079   11.89027450103052    7.95385328185127
H         3.78230307696600   12.25210613078855    7.03408339727987
H         4.50870423149182   12.74304462076108    8.57116611368041
H         3.49042622271399   11.30312755396578    8.48650027869750
C        13.09500706768407    8.69067656934487    6.93733429337972
H        12.16033236920629    9.05310568353176    7.35575326728000
H        13.79017327306824    9.52495119328321    6.89731508323131
H        13.51186497280103    7.93110196950548    7.60210312902458
C        15.06904780884489    7.25526619339842    2.57416356454891
H        15.69423596273146    8.14098068982936    2.66173299328933
H        14.75142399714989    7.14525187178837    1.54001075638823
H        15.67670314880855    6.38806829035465    2.83504329587422
C        10.33851156439665    6.03843711237059    3.64915487734301
H        10.47398942822259    4.99945699241502    3.95667540075303
H        10.15986817280360    6.05551751446935    2.57757379787766
H         9.45935766534360    6.44279629794726    4.14218193905028
C         8.65769911335158   11.38472464394288    4.81076949940422
H         7.77467147264165   11.28389173006838    5.44210293407097
C         8.84460258077898   12.66423803041518    4.22856105270291
C         9.87975441848278   12.83879665001053    3.26724614125515
C        10.12650699028708   14.09164118195958    2.73393063061671
H        10.89754441345762   14.24668045752850    1.99586835255259
C         9.39094046479061   15.18339082346295    3.16940833997130
H         9.61421777152717   16.16187966841609    2.77391427200451
C         8.37754679793721   15.04178974253120    4.10959419017031
C         8.09373262412620   13.78538860748496    4.61239739987037
H         7.30851122494790   13.65368816697035    5.34353598253337
C         7.60969421543559   16.23977079586273    4.61231481730927
H         6.54312758559597   16.00410548491992    4.70383524865812
H         7.99297846327068   16.53985949370555    5.59488031788740
C         6.69000712962583   17.81776389470871    3.09913466963447
C         7.09574281905969   18.87341690496275    2.09889150679035
H         7.93506927639900   19.43841451125207    2.50382749438956
H         6.25393750960905   19.53866624781484    1.90842560691256
C         7.51953955135137   18.16679320141823    0.80201697641490
H         8.21375195123013   17.36064503829828    1.05033834678819
H         8.05142622320200   18.87397831392412    0.16283368800584
C         6.31904492063945   17.58849874404453    0.03670209782042
H         5.58355005463494   17.20708015467333    0.74499170800794
H         5.83954692041000   18.38517430473459   -0.53552685017660
C         6.76958575005536   16.49750539312958   -0.89406875773147
C         6.98926325269423   15.18563090885701   -0.43816439486023
C         6.74254354945138   14.77877668571357    0.90882871821457
H         6.36239856764677   15.49841594340576    1.61486026742519
C         6.95264742412327   13.50710667122973    1.31837329431271
H         6.74830826437413   13.21863906408208    2.33923482331836
C         7.43669146442944   12.50869849579629    0.42747083212951
C         7.65178854832228   11.19153289406945    0.83363661254724
H         7.47858444140322   10.91741146503970    1.86546646978121
C         8.08938974487474   10.24008375347864   -0.06922486219424
H         8.24716158602467    9.22701351432874    0.26892536975305
C         8.33576680257358   10.58362779496463   -1.38628165950065
H         8.68047952920453    9.83577928792411   -2.08699205783338
C         8.14560736814720   11.89241630679921   -1.83252950620815
C         8.39235023742749   12.27566720310236   -3.18340380592270
H         8.74653570509927   11.51985966407585   -3.87070085200298
C         8.18526136406149   13.54611051813909   -3.59768565207460
H         8.37022969078387   13.83082263140964   -4.62429308853348
C         7.71219648573088   14.54926465917891   -2.70178183071417
C         7.48223807610411   15.86030350989733   -3.11626628743085
H         7.66677718703946   16.13048737096771   -4.14641040192664
C         7.02242766080459   16.80707784575123   -2.22349980238688
H         6.84996434934505   17.81797571679406   -2.56673788067378
C         7.46290428816287   14.20501915724848   -1.34977346881936
C         7.68444194217307   12.87308433523031   -0.91864021842817
C        11.67380630344273   11.69696269179949    2.10133331088736
H        12.27714146318410   12.59441797087213    2.30191672434771
C        12.48281185526694   10.45358550801023    2.45797467275019
H        12.82058812350721   10.50564478452352    3.49499040706198
H        13.35596747274576   10.37034992085285    1.81660370594339
H        11.86796710770375    9.56039735791125    2.31904865116061
C        11.21720594550576   11.66226293127278    0.64471008869243
H        12.07968879901391   11.68152029891212   -0.01606594594921
H        10.57483229361122   12.50873676647595    0.41177270486788
H        10.64993293704331   10.75172396394548    0.46412966669170

