49
CSD_code = FOTMOS | q = 0 | S = 0 | Stoichiometry = C24H18Br2HgN4 | MND = 5
Br        8.19581265249084    3.56670310606078    4.31036776976441
Br       11.72453349483983    6.25452255602129    3.05208971637762
C         9.05143954931973    8.73793261572721    2.88885077151390
H         9.24024071675762    8.66425763759857    3.95249106383140
C         9.24832247033728    9.93414748524043    2.21828416075061
H         9.58731011089741   10.80710031233484    2.75159839375519
C         9.02781716456251    9.96218885870305    0.84969925732033
H         9.20116135057174   10.86408565290949    0.28172762159730
C         8.58708620822907    8.81431795324348    0.21923173987097
H         8.41826222063385    8.79742158483130   -0.84572710004163
C         8.38035967441451    7.65825816862627    0.97624335213204
C         7.89543622331924    6.42197971638633    0.37567329963062
C         7.49409411928955    6.34395280366116   -1.04370572380029
C         6.52106509989071    7.19483273667305   -1.56184788632023
H         6.07284842627444    7.94405208521005   -0.92543598790051
C         6.11070344945635    7.06126408703312   -2.87563878361547
H         5.35307509609579    7.72251723376661   -3.26923427974459
C         6.66336367409972    6.08065921622522   -3.68302915295747
H         6.34128360302677    5.97980565216568   -4.70849229308283
C         7.62670963711711    5.22722130797749   -3.17145701467585
H         8.05936065193698    4.46046553159291   -3.79673734939734
C         8.03745942750642    5.35338993755492   -1.85738395019796
H         8.79850797866355    4.69624184710803   -1.45960586945261
C        11.20890458163977    3.30917742013731    0.87835336959118
H        11.92026427966055    4.07156740696782    1.16619641146018
C        11.63881681393747    2.11459704193775    0.32418486003199
H        12.69208289609203    1.93217920563864    0.18551926524287
C        10.68691745921843    1.17695735731459   -0.04557048215763
H        10.98018842638743    0.23429428533858   -0.48346306111934
C         9.35061162623931    1.47330500189476    0.14667313238125
H         8.57694083246036    0.78073655432558   -0.14449792973567
C         9.00467270084662    2.69919286094372    0.71829303332081
C         7.59104032631738    3.07501396140015    0.88803665873449
C         6.54837474768141    2.04370033040715    0.95215576980248
C         6.73187477896713    0.89354796747676    1.71617955968254
H         7.64351627002382    0.76417625908715    2.27955034387700
C         5.72752692365248   -0.05342086141553    1.79154674303131
H         5.87131580380013   -0.93753788271909    2.39401138241496
C         4.53860723726056    0.13351242034943    1.10559018452624
H         3.75848430059668   -0.61083066057201    1.16331206956672
C         4.34685110486128    1.28190976448901    0.35446118330570
H         3.41713472426305    1.43413168989743   -0.17351307253957
C         5.34295225185707    2.23694181667112    0.28166980987097
H         5.20371794080671    3.13595598096903   -0.30058601784239
Hg        9.45685153887582    5.30989756821554    3.14152048347654
N         8.63978296457320    7.63034030944590    2.29303735889621
N         7.82757342152362    5.38241383174572    1.13760872233750
N         7.20730597541298    4.29110770726281    0.94501809611020
N         9.92953707340361    3.60011457610532    1.07395037034738

