58
CSD_code = FOTPAF | q = 0 | S = 0 | Stoichiometry = C28H20CrN2O4P2S | MND = 6
Cr        6.25868683152787    8.56454918229345   11.15982130886349
S         7.49600178852781   12.26966881518985   11.52319849451253
P         7.37392185957771   10.00895666897648    9.68834169418557
P         7.41204846218483    9.68636216464206   12.86312438421995
N         7.68520118427123   11.58245785219411   10.13807165007773
N         7.45649498583778   11.34819791949696   12.77996416813660
O         4.06793088754518   10.56799515894192   11.64606137246850
O         8.00972544513230    6.17042514552220   10.71934530351145
O         4.72725040232290    6.85945755760466   13.08918489289916
O         4.78141342839577    6.97642604817081    9.09340766230098
C         4.94032644864128    9.84668233160766   11.42810072169347
C         7.44668104766599    7.15814274221619   10.91066548364207
C         5.35128188947485    7.51385711411320   12.37430212353752
C         5.33698353664360    7.64657187425060    9.85131349952781
C         6.62816035421343   10.41738561953083    8.07229951967472
C         7.40743958243300   10.98522269558928    7.06963156376360
C         6.82744980355894   11.34710606641034    5.86851401800795
C         5.46951347368631   11.15459872048565    5.66663446327901
C         4.68901409088130   10.60565786460647    6.67041458114071
C         5.26553602424316   10.23957390718790    7.87437826275575
C         9.02981425651108    9.45292450137786    9.17140666904128
C         9.08281293899155    8.30247963187481    8.38980073076213
C        10.30445194275915    7.75968763970071    8.04367408507147
C        11.47631436889159    8.35546707352096    8.48798595890840
C        11.42470828198973    9.49518579448265    9.27223454686477
C        10.20248757693333   10.04569778632552    9.61844158719076
C         6.64358057596144    9.47609059153026   14.49185698609332
C         6.83297539243428    8.26056367437780   15.14193515657599
C         6.19281045919808    8.01282333225552   16.34029275533328
C         5.35268350007669    8.97184676387795   16.88619984511579
C         5.15388583587406   10.17708192008075   16.23395560823289
C         5.79464236483195   10.43094324087192   15.03398224836176
C         9.17545745989622    9.41910751868960   13.29038863023967
C         9.98068002196847    8.60283903007584   12.51135730631721
C        11.32224720320196    8.45768476153617   12.82242605506517
C        11.85685136569232    9.12936476841870   13.90837734723632
C        11.05186172751146    9.94794212862086   14.68722807688817
C         9.71350652401201   10.09808256473655   14.37972979657793
H         8.46367702208281   11.14022793947445    7.24061461982279
H         7.43381112350661   11.78229515358209    5.08756493283313
H         5.01887437776005   11.43764476321602    4.72684704045933
H         3.62967311308124   10.46301091680980    6.51633638498808
H         4.66021078065375    9.81216428876378    8.66438864194708
H         8.15611654519904    7.84468767388675    8.06215086056344
H        10.34725822653711    6.86914676856311    7.43431150555632
H        12.43121676584157    7.92636643756249    8.22254961030763
H        12.33757160450917    9.95552727664138    9.62122352487698
H        10.15599279002385   10.93366734156416   10.23461960129264
H         7.48366184378594    7.51745558853148   14.69536886856947
H         6.34074848846653    7.07118243660770   16.84807034266827
H         4.84783634126112    8.77509244630503   17.82041203379640
H         4.49328879657062   10.91904184686961   16.65832631418087
H         5.64559902449695   11.36643142562655   14.51318772584382
H         9.55802071885336    8.07952901785242   11.66431177171297
H        11.94691380091369    7.82112455503939   12.21325553192345
H        12.90338603031367    9.01656191514642   14.15033317873743
H        11.47143112562158   10.46985896283403   15.53475797892361
H         9.07307815701115   10.73657507377604   14.97232097292220

