22
CSD_code = FOTQUA | q = 0 | S = 0 | Stoichiometry = C10H8O3W | MND = 9
W         1.65193457431078    5.05541577053793    8.95814648652236
O         1.39538453442076    2.48811980881952   10.73577973209274
O         2.02904837045593    2.56949892956038    7.11159622654666
O         4.27217332617088    4.77536515239480   10.62840662701272
C         1.45401959278798    3.44401715257017   10.09636766632737
C         1.92454514057061    3.48308575476146    7.79916277840991
C         3.32166460327555    4.85762042187620    9.98945228204083
C         1.19731539478744    7.04079354080549    7.97641522010048
C         0.10261000062648    6.17968510157903    7.68447466872514
H        -0.24373750575419    5.92117591146714    6.69114627956454
C        -0.55129360948993    5.88293470295958    8.89785505219350
H        -1.49948631339303    5.37131889617370    9.00124036008255
C         0.13695644265118    6.56049125128550    9.94975852121530
H        -0.21000833201447    6.64073596298284   10.97182772702208
C         1.21336438254735    7.27146827256234    9.38122788854680
H         1.85200932231488    7.98195685406193    9.89198776905538
C         2.36970519340012    7.26092833594647    7.06835666512849
H         2.07420736285810    7.29875766644428    6.01798944558872
H         2.92125693768060    8.16981848391271    7.31696238471970
C         3.12661958697922    5.98341050125131    7.42896157658294
H         4.08954518426719    6.19942581813163    7.88825737917787
H         3.27126581054690    5.33767570991535    6.56492726334381

