42
CSD_code = FOTQEL | q = 0 | S = 0 | Stoichiometry = C18H14N4NiO5 | MND = 6
C        -1.72355535048459   -0.35882249367980    0.44677908322926
C         3.16934065304281    1.20550259666830    3.11722830600427
C         3.32741345032740    2.45852829791907    3.99129543434415
H         3.32654451238604    2.12306311864737    5.03337686835994
H         4.27079263323645    2.95603264301742    3.76949285689245
C         2.16456085470233    3.43929669576645    3.82603561021508
C         1.64561666982171    0.54450276972602    7.06842349826363
H         1.86022226790132    1.52694783765181    7.44224703081328
C         2.07701366845718   -0.69589010069237    7.57260147234427
H         2.70954948162889   -0.87008021881369    8.41784128701667
C         1.51410287352922   -1.62824714936026    6.74303514592897
H         1.60011190398216   -2.69473850145604    6.74391372060937
C         0.09716288543559   -1.43358793299023    4.71038026101134
C        -0.23231855843259   -2.79291540196851    4.58434855321353
H         0.02523811197898   -3.49087095570194    5.36367430121789
C        -0.88212222863769   -3.21383608049568    3.45266522792545
H        -1.13869542160091   -4.25416877763808    3.32044317007616
C        -1.20317881716988   -2.28428806543985    2.44754260765378
C        -0.86088589970058   -0.93433674350166    2.67648603104877
C        -1.82640221597774   -2.64886021075837    1.22099610034821
H        -2.08591556387283   -3.68643595898286    1.07186284174113
C        -2.06784876768109   -1.72711254955700    0.25654844445934
H        -2.52276637368968   -2.01415934073548   -0.68008121738146
C        -1.14414136026510    0.04673379838622    1.66871644144792
C        -1.92442808646099    0.63241385404074   -0.53002522388849
H        -2.36101113429075    0.36285358959346   -1.48110714321518
C        -1.55147577006721    1.92548231634307   -0.25751624892325
H        -1.67913720726565    2.70773324554746   -0.98902957211014
C        -1.00359137505360    2.22727081122921    0.99707981356524
H        -0.70831072479966    3.23893504943434    1.24207629920151
N         0.88279928018537    0.37549204700961    6.01148191315580
N         0.79722233765360   -0.95002724264128    5.80901562005588
N        -0.23096205234565   -0.53494864439342    3.79428229287219
N        -0.81723761199708    1.32433161673997    1.93007569580159
Ni        0.40398425979228    1.23666030074162    3.90403963402874
O         2.03000522918344    0.61085595276764    3.13852352921779
O         4.10870543023898    0.77617237801606    2.47519096220109
O         0.97378796706614    2.95298856801081    3.89925341636738
O         2.36129572101683    4.63046059003285    3.67889195522856
O        -1.40787515074044    2.06757960434423    4.84922345567458
H        -1.06341311528745    2.28797904578702    5.72244946912173
H        -1.37289740574410    2.88810964138517    4.33964105486292

