39
CSD_code = FOTTOY | q = 0 | S = 0 | Stoichiometry = C14H18Cl2N2O2Pd | MND = 4
Pd        0.00008737217199    0.00017543387950   -0.00013228065980
Cl       -1.93271182554489   -1.17743582241378    0.42587021729825
N        -0.78650071321057    1.48785857877661    1.18128952657696
H        -0.92983297173496    2.39859831499757    0.73929660799904
H        -1.68597998341549    1.06511244932260    1.44685453232479
O         2.83929109586451    1.58372569385718    5.41057673789410
C         0.12030448554196    1.57231194865033    2.28396425269262
C         0.72694964532667    2.76575454879268    2.63635623291199
H         0.50589432028340    3.66894678509157    2.08523446722266
C         1.64518790137813    2.81130570770669    3.67431564100313
H         2.10935474629450    3.75418773863507    3.91393786627316
C         1.95904514852449    1.65506762954003    4.37768995482123
C         1.34059180659679    0.45075201608968    4.02317258334358
H         1.60193058620986   -0.43794438899593    4.57469256039571
C         0.43610727123155    0.40474371883707    2.98729190822016
H        -0.03979511404964   -0.53692879530430    2.70698821591727
C         3.53537178692968    2.74838843337165    5.78447917406391
H         4.13939694604177    3.13690569090888    4.95858464110168
H         4.19119776942368    2.44980294993893    6.60063147782299
H         2.85340792031391    3.52915284703410    6.13687525605872
Cl        1.93284751884464    1.17748167854726   -0.42591350189767
N         0.78643630418842   -1.48789480699067   -1.18124172162497
H         0.92976333006172   -2.39863300220128   -0.73923674378109
H         1.68591433830226   -1.06513469562861   -1.44676787119725
O        -2.83928277110549   -1.58372615251572   -5.41058472524742
C        -0.12032602088297   -1.57233356429942   -2.28395191366197
C        -0.72695122031106   -2.76577566172749   -2.63637121561534
H        -0.50588611321339   -3.66897446977383   -2.08526387934014
C        -1.64517496087813   -2.81131972570594   -3.67434172490813
H        -2.10932407691980   -3.75420383142499   -3.91398702144986
C        -1.95903735464983   -1.65507318882251   -4.37769864910857
C        -1.34059301752400   -0.45075802009243   -4.02316198984198
H        -1.60193169396003    0.43794291367092   -4.57467467385067
C        -0.43612047960799   -0.40475738027706   -2.98726928823862
H         0.03977812570535    0.53690821430785   -2.70695407289360
C        -3.53537742849574   -2.74838417409370   -5.78447688687958
H        -4.13939105203100   -3.13689726625832   -4.95857130210572
H        -4.19121542161613   -2.44979412582541   -6.60061745105176
H        -2.85342620008582   -3.52915421960484   -6.13688494058497

