29
CSD_code = FOTWES | q = 0 | S = 0 | Stoichiometry = C14H10INPdS2 | MND = 4
I         9.42000553790555    2.89129254619227    1.86820599152739
Pd        7.59339246766132    1.36729748500894    2.82766517121915
S         4.01755221514236   -0.51895451843799    4.73429863422590
S         7.69905245644920   -0.42464256622519    1.07691104124950
N         6.85405278186648    2.38572239319954    4.53311479169192
C         7.37322587846933    3.49835842506849    5.03272710445380
H         8.22685173925159    3.91940686849570    4.51220116127457
C         6.85989446227903    4.11289970420965    6.16397744884260
H         7.31393824732714    5.01696811443735    6.53472002080725
C         5.76166784727352    3.54613729822101    6.79798374263397
H         5.33971759847809    4.00554991272314    7.67891219190352
C         5.21659082494909    2.38384438418691    6.28817676541982
H         4.36623079261131    1.90545542406263    6.74870067422260
C         5.78131227023204    1.81045982772122    5.15097204905017
C         5.36377968157354    0.61001950009327    4.48449629210066
C         6.12678924658877    0.25721945262516    3.41277173231764
C         5.65616290504639   -0.88562820248048    2.74460638571773
C         4.50828950748907   -1.44780682427964    3.32826933891703
C         3.96876962565904   -2.57808736012027    2.72933894710853
H         3.09194051563594   -3.05781613025895    3.13557535088711
C         4.57894866672580   -3.08224812960795    1.59069736723371
H         4.15702233223698   -3.96074852655232    1.12637088482695
C         5.71701763916633   -2.50884176761436    1.00768642703294
H         6.14965059540306   -2.94255682282639    0.11982752639636
C         6.25516996845092   -1.38964298905561    1.59688087856158
C         6.87064256047203    0.71751087200549   -0.09081315772337
H         6.39319023862879    0.13463295851651   -0.87358723880588
H         7.65370818438368    1.34513136543575   -0.51288126228573
H         6.13433321264395    1.33306730525598    0.43919373919191

