60
CSD_code = FOTWUH | q = 0 | S = 0 | Stoichiometry = C23H32N4Ti | MND = 8
Ti       12.47813628715956    2.37289844644437   15.53339284419378
N        13.49853390783667    0.73636986498257   15.32114863992905
C        13.12147244721669   -0.41394416829599   15.95243844025165
C        14.73256772755837    0.44347565624734   14.79762629209052
H        15.29278792718415    1.16112771954386   14.22098865666183
C        15.03157301354585   -0.84867199019300   15.13325351814571
H        15.90340925781132   -1.43089530445705   14.90627573913717
N        14.00801732069281   -1.37862988896875   15.85922855507092
C        11.77908937685247   -0.51460810064191   16.63042711005508
H        11.88963797859199   -1.11004728288402   17.54563197125884
C        11.37370203198576    0.90428153494061   16.94615325114550
C        10.37933496033076    1.67678726338966   16.31923318023228
H         9.55293909662457    1.28923314532499   15.73599234284991
C        10.53693108788964    3.01671270453126   16.74412628720476
H         9.83682033108088    3.82325387659744   16.55413635654185
C        11.61155288679794    3.06022223392884   17.65893224539911
H        11.89688072936282    3.91269407131543   18.26314150175329
C        12.12919575353985    1.75962181641000   17.77952256939066
H        12.90596397442176    1.43906615933236   18.46530049264727
C        10.80376284174949   -1.19907776813707   15.70202082131407
C        10.66171776212277   -0.74696864789296   14.39338186094679
H        11.25761122929454    0.09549522830662   14.05189330814696
C         9.77310567261115   -1.36376905140198   13.53179826617120
H         9.67123517147401   -1.00615685109172   12.51679672696161
C         9.01659392168036   -2.44098972274430   13.96457110154140
H         8.32489581174283   -2.92390151604121   13.28987493649193
C         9.15536708906427   -2.89725705894488   15.26337192586233
H         8.57110078775630   -3.73901637189267   15.60567275572485
C        10.04429048225554   -2.27956539346035   16.12694771895838
H        10.15002656835725   -2.64278915405111   17.13919935930766
N        11.97184835953805    2.72109920634783   13.79857706174873
C        10.66016678821410    3.11372017133219   13.32182222564692
H         9.87966888184630    2.65439310229965   13.94107871252905
H        10.50894453581630    2.76164215190872   12.28957798182905
C        10.45770933730935    4.63813068754794   13.34480376733265
H         9.45571218154435    4.88888292041735   13.00331609519747
H        11.17663593276893    5.13096005493402   12.69249711585835
H        10.59243554241412    5.01399785119267   14.35865485206866
C        12.94511579804141    2.66034864712470   12.72048608683162
H        13.94863757282285    2.80808043192344   13.14382777077735
H        12.75687778778926    3.46800010320239   11.99317966705572
C        12.92225761168646    1.32023264533719   11.96740882832473
H        13.63786240955997    1.34229165151652   11.14848521777796
H        11.93363503572746    1.12648358436288   11.55456355502354
H        13.18797158392824    0.50691330858645   12.64081972948401
N        13.84484202929030    3.59619472658845   15.65464372272753
C        13.77858136830764    4.95150288810355   15.15287143743317
H        13.24791392822020    4.93568447046842   14.19377510777519
H        14.78856688798536    5.34847646142615   14.97228336138702
C        13.04264341404220    5.92127574621618   16.09401118018992
H        12.99193502248736    6.90894489009529   15.64102374001702
H        13.56348455596361    6.00963313622079   17.04542733427848
H        12.02924964491799    5.56458893480789   16.27830064147638
C        14.87546130227575    3.39081072349201   16.65244700370715
H        14.75782979754080    2.37698178427464   17.06129592677472
H        14.77169212476075    4.11084553497633   17.48518427922671
C        16.30941553497012    3.50039719819275   16.10593039756951
H        17.01447093322982    3.18082032612131   16.86937176866182
H        16.55359536884184    4.52255434201267   15.82521773032451
H        16.42468529357054    2.85976086877551   15.23453892558503

