45
CSD_code = FOTWAO | q = 1 | S = 0 | Stoichiometry = C19H23N2Pd(1+) | MND = 5
Pd        0.08057749185184    2.00223673439531   11.92812352633377
N         0.67007278067121    2.94419299077640   10.21729710386188
N         1.33195791821147    3.50387753991845   12.68395810950746
C         2.96047595789245    5.11670289740156   12.00306093036995
H         3.45221561102197    5.65922957273941   11.21255232792834
C        -1.29753726511723    2.93146745510888    8.84264216127468
C         1.95805323482164    4.19672374477974   11.70846088958095
C        -1.39607193395786    0.62131023553198   12.53069133914904
C         0.69924321716312    1.72488422009089    8.11002081710973
C         1.94262770592115    4.77199954343139    9.20163910182987
H         1.77382050084902    5.82406775665067    9.42493481357858
H         3.00869148122922    4.63393189548194    9.02472133734936
H         1.40143501364748    4.50896313916953    8.29547422305769
C        -0.46031302796696    0.81672341429033   13.56817122709872
H         0.39452286138159    0.13689896018040   13.64909948870866
H        -0.82295154874377    1.20660612102147   14.51709117302746
C         0.01132158984099    1.32600047840196    6.97365422331888
H         0.50417745150421    0.68615854908935    6.25824423137042
C         2.67928072391262    4.59908894165387   14.31513646094736
H         2.93426993771286    4.72644871667957   15.35439079387734
C         3.32802421701884    5.31808525960847   13.32400700266061
H         4.10602574324733    6.02273539721541   13.57231805691796
C        -1.97782244080575    3.75421142549799    9.89807923187441
H        -3.05311866487501    3.76016385618157    9.74237426430320
H        -1.76221685463319    3.35061670589900   10.90974698271258
H        -1.62571540247062    4.78641414466945    9.87029474071905
C         1.68560866152441    3.70165481493897   13.94915858862487
H         1.15360244390304    3.12969830392271   14.70073916677035
C         1.49118626226417    3.91871542349865   10.33884638964343
C        -1.94795578249386    2.51559315418412    7.69187340570700
H        -2.97516728246373    2.80476983184492    7.53142786349238
C         0.04037356151703    2.55409153337017    9.02234390526342
C        -1.29393719038354    1.73151285764102    6.75617242465773
H        -1.81142172419403    1.41801235537251    5.86362618231507
C        -0.85885834413294    0.25426377887495   11.27782147080354
H        -1.52086139964732    0.21107868085069   10.41656295162343
H        -0.02302189273717   -0.45147437715393   11.24624615334805
C         2.08680993023629    1.24687921691551    8.41352973359506
H         2.32895420193450    0.37650411265752    7.81084177121300
H         2.82556792996189    2.01960526715336    8.20150803262361
H         2.16971311906486    0.97867320505614    9.47202423723114
C        -2.81485783151547    1.08532186038446   12.67174475336938
H        -3.28209149952432    1.23930132011754   11.70033051742665
H        -3.38298212439365    0.32041339387618   13.20167948805346
H        -2.87460733823351    2.00574557060260   13.25743840578243

