49
CSD_code = FOTXAO | q = 1 | S = 0 | Stoichiometry = C20H18N7NiO3(1+) | MND = 6
Ni        3.46983864272751    3.02481541067764    0.50668873724343
O         4.21006730457092   -0.62813635188333   -0.48364953128552
O         3.36043142343623    1.25980636039427   -1.03923129684586
O         4.26548397048124    1.02603419937313    0.87338824755632
N         5.19485269034076    3.38999171727113   -0.03459753775806
N         6.12756219385556    3.41151946733343    2.14794349765189
N         3.90914216251101    4.14146812890280    2.34203433135810
N         1.81377030766770    2.39676462930335    0.98627868263529
N         0.77772840309283    2.99170075144717   -1.05373100242679
N         2.51747067272143    4.50493636401210   -0.63277232995690
N         3.94956685599059    0.51188492849309   -0.23630964315550
C         5.39883739448097    3.30688965133379   -1.35707781258811
C         6.63484201644129    3.08451554532340   -1.92048417967951
C         7.72918020142319    2.92330102267772   -1.07538887674795
C         7.53555084945412    3.03298567633633    0.28063698094816
C         6.24804946191879    3.27833537993103    0.78765652837414
C         5.08615659672242    3.88046606812530    2.91348740739215
C         5.31311974944127    4.10713625486583    4.27956098636349
C         4.30199294408592    4.64637757964942    5.04207832801967
C         3.09161357050827    4.96343049525065    4.43001084503210
C         2.94380419559067    4.68734957619844    3.08802452628385
C         1.77496717766441    1.69177486282952    2.12445151843810
C         0.77818105440116    0.78842995965049    2.41723876739859
C        -0.22818647481057    0.58323218391497    1.47740870564208
C        -0.21061505573013    1.32187020852393    0.31786881238401
C         0.82581049861641    2.24247831777206    0.09514072195558
C         1.49288361672817    4.11214721005279   -1.39434507863622
C         1.09020447196105    4.84564161152964   -2.52151805703124
C         1.73987390395479    6.02066452913229   -2.82135386663432
C         2.76547253718336    6.45629890470262   -1.98481020885814
C         3.12079534232396    5.66482218268323   -0.91491642833185
H         4.52389041934246    3.39650207523557   -1.98877200576646
H         6.73679707116092    3.01509458235389   -2.98998443361326
H         8.70915699038206    2.71570157508080   -1.47451285551625
H         8.35966921330749    2.92008986458981    0.96755402669874
H         6.26922944774465    3.86438251715876    4.71584919245778
H         4.45018289752395    4.82942269912258    6.09470126608362
H         2.28527522910949    5.40710724159802    4.98918566954312
H         2.02047562206776    4.91129625362103    2.57069906648980
H         2.59578851157891    1.84319640213506    2.81424200058541
H         0.80062888051871    0.23951101965462    3.34314634391438
H        -1.00699249715651   -0.14152270469338    1.65337502338009
H        -0.97599784886515    1.19635957650977   -0.43164959188225
H         0.27769300137936    4.48713090824031   -3.13343385045178
H         1.44999993327927    6.60047772025879   -3.68341948096084
H         3.27854981174041    7.38455783503341   -2.17102571830517
H         3.91567259203564    5.95951776092572   -0.24330472476218
H         6.96941725560908    3.19581504292014    2.66562656086161
H         0.06571478948600    2.71402680444622   -1.71588826349929

