40
CSD_code = FOTXOD | q = 0 | S = 0 | Stoichiometry = C14H19BrCuIN4 | MND = 3
I        -0.24689048727828    0.29235607947103    0.13128639426641
Br       -1.36828182236224   -0.55362536159568   -3.82956786206391
Cu       -2.04562944818354   -0.23618997694797   -1.57032710797708
N        -5.02957603670072    0.00391751878130   -2.14650269600889
N        -3.98496973917629    1.85253017048400   -1.83338307143544
N         1.46284085228696    2.54692206745465   -1.96943099862148
N        -0.60559395931204    3.05421053374215   -2.39205089703373
C        -3.85985962733699    0.50426385893679   -1.70241937496852
C        -5.21634913528712    2.17452419323177   -2.35021962825391
H        -5.51609824670712    3.18601609800897   -2.53164869277915
C        -5.87529461420831    1.00946452629411   -2.53831020068492
H        -6.85854433819266    0.81207810304943   -2.91233131602933
C        -5.35515445693085   -1.39944259606193   -2.20421863335779
H        -4.45241837124900   -1.95163636106840   -1.91872055832397
H        -5.61962411250663   -1.67147872186569   -3.23152509960858
C        -6.47640408302785   -1.73396088939836   -1.26584952246733
H        -6.32309308914589   -1.41928323971113   -0.24183363300779
C        -7.58127870586918   -2.35592016363099   -1.62864242092109
H        -7.74485140825689   -2.67494054839123   -2.64542066875090
H        -8.36180490735842   -2.58712813155003   -0.92466740710557
C        -2.92129087495942    2.77669296833279   -1.56685102523526
H        -2.33881031623487    2.38714199206770   -0.72610649242954
H        -3.34524238644295    3.74291770758939   -1.28327063046166
C        -1.98177945105042    2.92357880175134   -2.79144179465343
H        -2.05697712708475    2.02206809113988   -3.40966191705575
H        -2.26437632274981    3.78873404184322   -3.39566651112262
C         0.31393536540126    2.08717197486195   -2.45680888442390
H         0.16009176954926    1.13695447578258   -2.94875460443450
C        -0.03355702031707    4.13948454433098   -1.78796974601483
H        -0.57649203657573    5.04176988584138   -1.59897841788077
C         1.25847278312065    3.81834123966649   -1.52144394067153
H         2.03413438827634    4.38604572288150   -1.05140791909996
C         2.65563037528812    1.75799452168658   -1.77370130387346
H         2.63314692032023    0.93875243996845   -2.49852562751606
H         2.61806688766506    1.32121499760202   -0.76853665920451
C         3.89333894642216    2.58168115638639   -1.95563794457953
H         3.95910327713097    3.11492193450322   -2.89515046268795
C         4.85913345565167    2.65726899782254   -1.06043503666887
H         4.80334624598604    2.12637425798467   -0.12467547031983
H         5.74820085667915    3.23891308824867   -1.23119221678903

