31
CSD_code = FOVGUU | q = 0 | S = 0 | Stoichiometry = C12H12FeN2O3S | MND = 7
Fe        0.81699024079145    4.08416326537703   20.32153108614835
C         3.01588929823878    5.39565815256965   18.65200843422399
H         3.71064772518732    4.58367580829120   18.41073503414917
C         1.96690957902687    5.80727293543865   20.89235204905290
H         2.11104430315879    6.10374755558880   21.92955071170744
C         1.58194167146825    4.89584013388499   18.49910925538732
H         1.41830088235564    4.44284008407680   17.52255459395172
C         0.75076746173627    6.24227773217210   20.27997861074815
H         0.02033993239784    6.86078653977687   20.78948644798783
C         0.54072108626412    5.75046363920422   18.98300940332743
H        -0.36191320654144    5.96689991001822   18.42141476017662
C         3.24731619581500    5.90430682216322   20.08218224763797
H         4.03412314520127    5.32703592242859   20.56761937890192
H         3.58329559707629    6.94619376707417   20.06164678032031
C        -0.33945006709856    2.96509529021760   19.59841797998062
C         2.22680512168711    3.00228274014135   20.52342088850033
C         0.01155910847398    3.82092339501583   21.86541766524595
O         3.10820570180290    2.29392575252942   20.67085490018290
O        -0.48750631272113    3.59534085387447   22.87140457168478
O        -1.06196372982546    2.19114786072833   19.16355691402122
N         3.29372221183490    6.41362912408005   17.66184065498224
C         4.04052952582758    6.18654057341443   16.55442889372578
S         4.95521415541112    4.85871171463742   16.25130319711956
N         3.91070736397219    7.24508992694746   15.71300441923763
H         4.58045233739041    7.39064070008832   14.97688113980610
C         2.53846830863190    7.64454915989587   17.53504307016950
H         2.58895630189931    8.23400778591654   18.45347418704036
H         1.48370447900839    7.42936275618433   17.32128256739355
C         3.21719984744489    8.34412779298875   16.34790352104778
H         2.49806939991563    8.79792759422634   15.66224226854503
H         3.91825233416822    9.11923471104907   16.68504436759534

