72
CSD_code = FOVHEE | q = 1 | S = 0 | Stoichiometry = C34H33ClP3Pd(1+) | MND = 4
Pd       12.01691079153045    8.78803431511831    9.96491191647649
Cl       13.35732114625351    9.72018073463591    8.41743878756232
P        10.52808084711581    7.82675087117586   11.27623215345318
P        10.52578727602571   10.50905034351959    9.92231184570634
P        13.39297965591527    7.12384675959296   10.63425472848223
C        12.36277259315303    5.92363667215854   11.62298645538278
H        11.85301064820613    5.28570261667360   10.88929103750538
H        12.99595941796097    5.28119541968156   12.23894355072653
C        11.32597991234000    6.67526891981664   12.46423093433049
H        11.81136933875766    7.26849396127513   13.24758153875919
H        10.60728593320871    5.99301424704784   12.92701868195360
C         9.40330475174041    9.06816653857651   12.03483343641756
H         8.52763067545045    8.59747598590504   12.49210429856512
H         9.95904706313564    9.61464197638331   12.80529280904355
C         9.00818783224444    9.99614777560785   10.88047966674549
H         8.48661687043855   10.88713037358341   11.24211479306058
H         8.34680631803931    9.45512354031430   10.19446237607118
C        11.28017020602386   11.71323636018727   11.05457689956842
C        10.81886261354414   13.02430962252406   11.13317898561366
H        10.00782674945384   13.34828309084702   10.49551025407014
C        11.41243285951278   13.90873824166640   12.01535984834765
H        11.05893208556473   14.92683256742043   12.07227348186509
C        12.46261641294272   13.49295689219550   12.81930428548247
H        12.92726131471288   14.19002601045053   13.49942337419023
C        12.92158310472502   12.18709751012133   12.74767419601426
H        13.74183732256012   11.86446540252291   13.37160982089380
C        12.33287213266745   11.29602577795429   11.86847165532316
H        12.70180343451502   10.26276752889761   11.80765003712139
C         9.95889117445457   11.48312219081548    8.51459995206102
C        10.93973098849148   12.22866894216676    7.85846265730293
H        11.95803749302696   12.20435246697196    8.22431114800089
C        10.60620186628342   12.97752104955001    6.74703311800112
H        11.36449115445206   13.55481161954628    6.24084828200683
C         9.29984858908921   12.98097864935248    6.28132191410195
H         9.03893958639298   13.56565068847186    5.41264123531574
C         8.32873654552702   12.23027433478699    6.92393306185935
H         7.31384234066016   12.23062175248711    6.55597397487520
C         8.65226210402489   11.47306747950057    8.03646600060003
H         7.88811859359971   10.88656173277922    8.52540632450116
C        14.66877512329216    7.74719843688400   11.76026625416393
C        15.14125059882012    9.03306171244086   11.49245462930027
H        14.74608112621155    9.58387017155366   10.64213107588647
C        16.12465275714211    9.58896253289105   12.29038181425473
H        16.49053626443823   10.58195183729848   12.07779980628016
C        16.64033082945145    8.86886345357057   13.35636019225488
H        17.40741686240726    9.30096818999111   13.98046364528910
C        16.17666344404835    7.58970655859841   13.62094376364329
H        16.58422888297196    7.02748516351630   14.44753586435369
C        15.19353446260139    7.02425940201596   12.82840277563041
H        14.84545842209773    6.02467348957434   13.04639265628306
C        14.19508585844693    6.08964217138714    9.39188920970509
C        13.60892375611710    6.08560049762680    8.12836822904877
H        12.73739482009891    6.71332586650886    7.94372062178378
C        14.15789233314742    5.31601125726741    7.12056734646113
H        13.71324390540208    5.31315615454775    6.13708587037752
C        15.29166272097638    4.55921162054070    7.37380218415003
H        15.72652577072978    3.96419691184666    6.58545255137675
C        15.88039221814657    4.57289571290852    8.62912259457083
H        16.76989478174065    3.99017917301635    8.81414068502474
C        15.33809469941794    5.33922372449311    9.64483330293645
H        15.80214509952496    5.36796590634872   10.62052161033216
C         9.46286233651338    6.81017068677181   10.22620602699160
C         9.64456035457364    6.89988669008920    8.84538783885176
H        10.41028901812448    7.57487928850345    8.43441471039017
C         8.85199365855839    6.14677504278266    7.99807160069812
H         8.98841261147177    6.21309936206607    6.92952169805490
C         7.88165877623759    5.30753855813837    8.52432308784303
H         7.26492467659504    4.71922882181628    7.86280163697350
C         7.69688955955449    5.22092375064257    9.89602472448597
H         6.93761280180187    4.56818458615710   10.29857868175893
C         8.48394910162935    5.97073844992455   10.75121593579890
H         8.34081262372546    5.90833385610022   11.82159785701456

