43
CSD_code = FOVHOO | q = 0 | S = 0 | Stoichiometry = C20H15BrClN3NiO2 | MND = 4
Ni       -0.50101411769303    1.43851499341487    3.10061621920667
Br       -6.65408998298333   -0.58330475143377   -0.35562147733413
Cl        7.00858814073313   -2.44047894921543    2.76876570966839
O         1.27490797990232    0.93913659012934    3.31617600525432
O        -2.22925985343951    1.88398150225683    2.84300784126624
N         0.58814216048076   -0.69112453907362    1.89937264288005
N        -0.60183014145884   -0.03100078961220    1.99129003330617
N        -0.26988430846258    2.95490831677555    4.29686493193803
C         5.41590050933799   -1.77137310083268    2.72115647760870
C         5.14898114899840   -0.59480571619404    3.40469938355210
H         5.93274524931911   -0.10318889358700    3.95962507965759
C         3.87418813445585   -0.06605369863017    3.36382144293561
H         3.64259402929862    0.85037628663649    3.88506364649189
C         2.86553485960401   -0.70362651263985    2.64480864412052
C         3.15157813823602   -1.88473685001249    1.96323570733981
H         2.36614389851995   -2.37264325077527    1.40949076589707
C         4.42362015812389   -2.42005991383470    1.99990037006005
H         4.65122054175832   -3.33477633301896    1.47504796123670
C         1.51606072257837   -0.12069179629496    2.62056371423000
C        -1.61920796571937   -0.50034245844073    1.30985933401339
C        -1.42196231343365   -1.72539371443774    0.46545082262307
H        -0.38810810181608   -2.04598387514423    0.54876238468294
H        -1.64765673308314   -1.50597180634423   -0.57608499762051
H        -2.07497731929229   -2.52656579692469    0.80561142173148
C        -2.91255020899754    0.12558198747852    1.35137880559490
C        -3.13753877181590    1.30035706683257    2.13261472891361
C        -4.43316306079315    1.87061933190369    2.12851257305251
H        -4.58550182519772    2.75722457683291    2.72486653552548
C        -5.46134644945347    1.32878117269792    1.40663166889008
H        -6.44256928681031    1.77804023621009    1.41782664589640
C        -5.22327951313688    0.18061092971064    0.65296370166257
C        -3.98685573685476   -0.40981668454546    0.62040507135385
H        -3.84714897168542   -1.29663356892245    0.02457295570522
C         0.41525090398762    2.82870155137675    5.43539586345408
H         0.81779318212993    1.84772295210592    5.65588209465129
C         0.62288509330282    3.88765766141610    6.30279103945249
H         1.18187923285305    3.73519605396292    7.21285861948217
C         0.10445129877574    5.13202677741365    5.98207721718688
H         0.25095470388266    5.97807585905895    6.63642236901587
C        -0.60824799706189    5.26149470730697    4.80099277397469
H        -1.03250796194293    6.20873151310628    4.50792731295305
C        -0.77329701527763    4.15148917348825    3.99030236703931
H        -1.33842244987050    4.21764375979726    3.06979359145112

