66
CSD_code = FOVJAC | q = 1 | S = 0 | Stoichiometry = C23H32N5O4SZn(1+) | MND = 5
Zn       11.84197706124765    8.70033610384809    9.44011215437900
S        14.77976451081291   11.81829239326133   10.71816404798299
O        10.93142921986867    7.46030676475949   10.66953553756359
O         9.93947923956384    5.08877391980173   11.29491655890567
O        10.98679802077965    9.02171935613368    7.68247609927385
O         9.52966423085433    9.87014638954400    5.60954528535855
N        10.49294401690776   10.16316313829248   10.21129035885240
N        10.43500982835389   11.50843315688315    7.65334895067501
H        10.52943990582920   10.37088292716026    7.58960344863519
H        10.79739786020886   11.84047468964065    6.75890318833667
N        12.69314681472722    6.96383832429105    8.66404719999870
N        12.68603466232262    5.82792721810038   11.42422136281351
H        12.56395019565444    4.87899555934855   11.06926137089217
H        11.76754959458307    6.45393146667854   11.09414558095360
N        13.38430439511532    9.55726199269486    9.99595280272694
C         8.85126329387705    8.56086923237056   11.02014460912224
C         9.65897991632248    7.40635014330193   10.98395433262277
C         9.07205892728191    6.15995145636184   11.33628925792755
C         7.74065311241828    6.08264357717519   11.67689027197859
H         7.28856293556373    5.13773608227487   11.93068321042372
C         6.95172053993875    7.23376805851336   11.70427335699071
H         5.91271976320772    7.15344367025461   11.97929177481402
C         7.49865076684613    8.44926765583162   11.39446026536877
H         6.89058493405074    9.34084202959896   11.42536543904596
C         9.41510940258675    3.80879415463005   11.57167170209093
H         9.02978842164317    3.74530975369348   12.59344850513683
H        10.24551661729012    3.11328934130342   11.45836285925874
H         8.62430201790849    3.53836640664244   10.86733252397990
C         9.36892923099784    9.86659701500747   10.74655579137703
H         8.70201422229884   10.68074056096717   11.06252013487446
C        10.83841173381900   11.56115582728331   10.12008654874271
H        11.66484745613017   11.74959390634621   10.81350123924798
H         9.99500654083629   12.19750702088291   10.42324944603394
C        11.33935078227143   11.95609335635748    8.73062923609824
H        11.44978040712649   13.04358941416530    8.70306552360805
H        12.31344160200490   11.49655737933504    8.55846309336021
C         9.04361684324899   11.94440442525075    7.80186826849969
H         8.59106424193101   11.44834175305415    8.65580126061374
H         8.48228621907030   11.66591424110377    6.91508977078990
H         8.98780395374189   13.02486715402645    7.93920632329763
C        11.13965093402717    6.80927887209667    6.78825865738841
C        10.67148904028361    8.14287850126908    6.76146262577253
C         9.85171962261937    8.52873700888824    5.66065065402779
C         9.43722892657957    7.60664450736011    4.72705964586078
H         8.79600273984957    7.89871678340014    3.91175984439445
C         9.84327365496187    6.27510816162971    4.81497665007273
H         9.50066242994226    5.56686617786751    4.07857444043542
C        10.69740022729276    5.89391436900626    5.81115495596863
H        11.05290421845597    4.87560767185830    5.85731673980785
C         8.88147849502742   10.33957611084837    4.44597972527538
H         9.44048900940280   10.07663916785308    3.54433540135125
H         8.84468481371046   11.42498940053330    4.53454458318571
H         7.86169863074652    9.95213175825177    4.36907229298184
C        12.14324011636653    6.34006176963048    7.69031728578730
H        12.50724974006753    5.33317730953782    7.44672200081321
C        13.83363121995509    6.33111991361680    9.28656599543610
H        14.73031524156692    6.83402694917176    8.90845541431804
H        13.89467713771972    5.26905086194008    9.00114699190944
C        13.85639790293662    6.46768327720635   10.80480823616714
H        14.77677421618693    6.01498305259649   11.18562090876894
H        13.84331000711430    7.52739132536278   11.06730772724911
C        12.73591128415660    5.81890046134533   12.88650155775315
H        13.59837507273399    5.26018418202276   13.25142464322031
H        11.82657143929927    5.36897731327299   13.27746315415811
H        12.80372663361825    6.84364541917310   13.24574056189530
C        13.98808380613675   10.52693265809532   10.30665061334751

