55
CSD_code = FOVJOQ | q = 0 | S = 0 | Stoichiometry = C26H22N2NiO4 | MND = 4
Ni       10.05629159674738    1.78332248152376    4.36048636347514
N        10.35930949330839    1.72824137220669    2.41889921580931
N         8.26953384828518    2.30017181660232    4.36210682857204
O         9.52602427097607    1.00599415224999    1.53544751767813
O         7.79575096291552    2.62098127261781    3.05640069049565
O        11.86518590071278    1.44826717797320    4.48976930987966
O        10.01871061572818    1.71010548455932    6.19348343109920
C         8.41080864608188    0.44148977861586    2.16937217842514
H         8.71138379756644    0.01839606288448    3.14837820310824
H         8.06344957840603   -0.35876093431356    1.51325511318721
C         7.30865164476285    1.48922212411252    2.36932202508119
H         6.98521130601521    1.88620169820855    1.40459532899027
H         6.45529272340261    1.04014117280752    2.89618688603288
C        11.51963419500983    2.11931761334500    0.34372397355423
H        11.39110740509166    1.07575270958491    0.05774719992968
H        12.47964359210422    2.47140338729772   -0.01483100014391
H        10.71566031373548    2.68405090031780   -0.12683633742234
C        11.40541262427271    2.22877553533720    1.83280298177758
C        12.67516568014349    2.26672935759485    3.92456519914674
C        12.48794523885798    2.76641654818165    2.60803647941105
C        13.41516738952241    3.68793427440813    2.06822768795218
H        13.21568920894088    4.11737533939905    1.09720644813172
C        14.52162121408988    4.07794555734590    2.75529807222949
H        15.20702725295260    4.79720392379779    2.33191202665697
C        14.79624936903569    3.54697981367097    4.04025729671379
C        13.88178719402716    2.64376831355293    4.62536021528073
C        14.13546873529056    2.13300775416913    5.90788889062379
H        13.41299695535440    1.45202764541942    6.33100737154926
C        15.26567595379641    2.49541871734757    6.59321277535139
H        15.45685403553016    2.10094281867201    7.58044791057752
C        16.17893188795172    3.38379758927380    6.01488818221517
H        17.06847527651609    3.66389261263270    6.56117093941256
C        15.94781020141743    3.90049569101659    4.76679754869013
H        16.65146570988682    4.58902232877642    4.32008540914626
C         6.12183021297743    3.24506324239775    5.03495967958938
H         5.98234260354018    4.11769750484877    5.66820394897696
H         5.31153037620263    2.54292867042650    5.22759484142106
H         6.07793819229270    3.56118821214780    3.99650837835936
C         7.44703081623791    2.60402309583310    5.33980882150488
C         9.08436060863615    1.89043134206384    7.03944360962991
C         7.77900547720080    2.34014899831586    6.69962337789983
C         6.82269027576312    2.52203431377633    7.73988347366109
H         5.82626497593861    2.84545370496983    7.48414280916465
C         7.11428170664011    2.27899048757485    9.04043448430565
H         6.36420009635209    2.41579561560190    9.80532534176681
C         8.40829359675226    1.83885264613493    9.42737643453675
C         9.39038313849822    1.64480241967202    8.43510008510834
C        10.67199687581060    1.20957291313389    8.80302102916951
H        11.40347318736122    1.06892259960797    8.02237108929314
C        10.97652655059607    0.97222622625483   10.11960425569328
H        11.96454548040143    0.63752934486919   10.39917086512095
C        10.00576509608172    1.16312648694253   11.10666228642517
H        10.25267400002848    0.97384277831231   12.14155709312265
C         8.74589468413775    1.58778717265163   10.76736958277421
H         7.99397823011428    1.73615013327524   11.52966614985794

