68
CSD_code = FOVLAF | q = 1 | S = 0 | Stoichiometry = C37H26MoN3O(1+) | MND = 9
Mo       10.36446307160990   18.54346471408895    7.35471923054723
N         9.60768136283092   16.59118536057121    7.08331477482479
C        11.29258656048498   17.38269602469649    9.20182063036445
C        11.47585458861755   19.69348199137434    9.04105323330996
C        10.77138512872774   18.62502480019779    9.70021157346977
C        12.43025744904527   19.09340098522829    8.16253752372396
H        13.26222850480923   19.60630507728976    7.69524613385172
C         9.80323397456106   18.60647601275358   10.72511646179762
H         9.45791087336314   19.52720424176879   11.17168990074964
C         9.34796501158121   17.40175607970415   11.19358108696159
H         8.61003308710251   17.37852337453360   11.98050925304564
C        10.20825489637740   21.73392127517635    9.72872821642640
H         9.29506017092373   21.15645052577408    9.77610257091698
C        10.81393433830443   16.16181870050442    9.72252669614861
H        11.21982924568101   15.22335568780217    9.36867319371776
C         8.34373853167802   16.36505932424787    7.50068407449037
C         8.65693896886158   20.96612753769415    7.16566053340461
C         8.29848359176660   22.31029280570950    7.02505308205144
H         7.29235617758595   22.62402278174964    7.24842553875135
N         9.90628126491446   20.52735690634341    6.89690300846292
C         9.84466322306768   16.18624547109403   10.69007947218084
H         9.47160499894333   15.25970729349653   11.09924927818495
C        11.40927932768306   21.12120367092527    9.36340820571664
C         7.77120573875386   19.90308172931308    7.57237334896527
C         5.70072185952857   18.92559000202192    8.28460497584043
H         4.67444381257332   19.01821846169627    8.59925989229077
C         6.29287418676648   17.67742414702508    8.16776953361897
H         5.72645193807072   16.78509222449651    8.37457435699699
C        12.56143373657383   21.90862994789087    9.29539410024308
H        13.50792280675404   21.45306715389824    9.04566674642770
C        10.80252328121448   21.41977051380110    6.46021382261002
H        11.78140491003119   21.02956332132018    6.21395894471823
C        11.30922506343044   23.85658910982126    9.92520503823236
H        11.27008133137177   24.91227563505116   10.14324070889304
N         8.37123770452995   18.68740582000543    7.51221024229841
C        10.34154738005992   15.54667358585584    6.69266144428827
H        11.33296857386216   15.76731394165965    6.31988753660850
C         9.23955722420650   23.21986342247937    6.59802572681995
H         8.98966612343002   24.26183272007361    6.48283714612908
C         7.62010338692348   17.58635634531667    7.76685099939125
C         7.82065773611966   15.07396157651406    7.60066923058891
H         6.81570807062173   14.92540077293050    7.95923533929963
C         9.88390881490574   14.24744477259097    6.74477682952897
H        10.51854390147888   13.44173200315822    6.41449152607708
C        10.16081658143941   23.08706884933983   10.00400606397715
H         9.22222319731371   23.54234787158538   10.28238875860667
C        10.52046697288001   22.75659017250060    6.30026533364725
H        11.28420730283120   23.42859684004441    5.94600835555858
C        12.50934059405537   23.26067705411573    9.57453555654070
H        13.41097192965562   23.85133208512322    9.52304316221192
C        13.29607021030148   16.74643921914030    7.64950066373177
C        13.73361390593979   16.88600295752711    6.33215983195249
H        13.30961113272373   17.66484607983432    5.71112193238191
C        12.29834799255399   17.67639645898263    8.20127045043569
C        15.22422600557331   15.02679098592876    6.60648836034479
H        15.96923188285617   14.35927792866645    6.20250773304051
C        14.80684622373804   14.88950800557248    7.91958413023440
H        15.23207014917259   14.11887699399472    8.54434605750486
C        13.85241589793219   15.74383723207576    8.44195923456123
H        13.55559647616089   15.65244843333718    9.47663960899520
C        10.66105006817773   18.45394655247884    5.45211017068508
O        10.90257592511825   18.40717526582383    4.33329049110836
C        14.68954392834941   16.03146564185108    5.81606363499017
H        15.01742898785507   16.14959155923894    4.79467510812911
C         6.44279239438661   20.04871759753318    7.95905529807418
H         5.99570997361614   21.02781252783604    8.00054681191619
C         8.60090216157564   14.00006874175811    7.22826934573618
H         8.22052817605039   12.99341709606208    7.29406274269156

