43
CSD_code = FOVRIT | q = 0 | S = 0 | Stoichiometry = C14H24Cl2IrNO | MND = 8
C        10.41508322916607    5.91354786745662    7.51072751196689
H        10.02124028533025    6.67976664657631    6.83899124427653
H        11.08489481413022    5.25114760783974    6.96026256745021
C        11.16443945859728    6.58505970152616    8.66659683825099
H        11.61542223761522    5.81180190769345    9.30739881932360
H        11.95127016979326    7.23960749704929    8.28897253776596
C         9.23317560537289    6.65081373388436    9.95690108244048
H         8.61534859117306    7.35345843086286   10.51782393064123
H         9.61614626018652    5.87988609984376   10.64307360851479
C         8.42080710236769    5.98384079127975    8.84222393217008
H         7.62390641556238    5.37209309620831    9.26843989909436
H         7.99130194262661    6.75318355668848    8.19706760585187
C         7.11966217448435    5.38901971315940    5.30575860338714
C         6.25250781819449    4.33647599096904    5.69094019989786
C         6.78380797088546    3.10204419958098    5.15536832746592
C         7.96157957352687    3.42172696901090    4.40906732810174
C         8.20594137354793    4.82465844003509    4.55123733776468
C         6.88517109096547    6.84880464575927    5.51646373037609
H         6.27088017755314    7.02860424100782    6.39577804330687
H         6.36375521873648    7.25960462173273    4.64994639223593
H         7.82186439746553    7.39188481560776    5.62670364867286
C         4.94313856445535    4.44408174899190    6.39940733731533
H         4.92399331887736    3.77624643339509    7.25945561308415
H         4.13367663783345    4.15497295852594    5.72839262284025
H         4.76210474186537    5.45738906311261    6.74709562441295
C         6.06031462425475    1.79486734549942    5.17929964691887
H         6.74102769711168    0.96670821734758    5.00026012693410
H         5.28870088151086    1.78538402623539    4.40715093761477
H         5.58254964008900    1.64234807828699    6.14427600187258
C         8.75578555378978    2.50486258178774    3.54089772695601
H         9.82086562649340    2.61611035616967    3.73478333852851
H         8.57079403896982    2.74601786674441    2.49302215366679
H         8.48456189071400    1.46752819911495    3.71423443125736
C         9.26010997446865    5.57770096792396    3.80740193801429
H         9.40936455841919    6.57086194795797    4.22336709888351
H         8.97003905855824    5.68705261203845    2.76089053625205
H        10.20602969916827    5.04135574961654    3.83984039341105
Cl        7.49064335735950    2.82803802009384    8.53067094307822
Cl       10.28814805900323    2.69693387184138    6.70572555005641
Ir        8.26461352610621    3.86467587757316    6.56621033881298
N         9.29121599792219    5.12697408974274    8.02936628566830
H         9.68370148917582    4.41084045998499    8.65473525129049
O        10.30231515657133    7.40181895424117    9.42627291417467

