71
CSD_code = FOVYEW | q = 0 | S = 0 | Stoichiometry = C29H36IIrN4 | MND = 8
C         5.99798632410761    6.02526780141264    0.82869028923655
C         6.74523578035699    3.94637393230534    1.20156748715917
H         6.73572153549260    2.94090167000651    1.56703600771026
C         7.68247347855560    4.60437166390466    0.47627485899468
H         8.62143890792775    4.26799932489651    0.08785902088276
C         7.90657115502863    6.83491398242402   -0.51685319429347
C         9.26962187754046    7.02863402196473   -0.32980501340884
H         9.79966368148760    6.44962598520420    0.41321441537883
C         9.95449590418324    7.96687681028429   -1.07236745330871
H        11.00938309373210    8.08677969758940   -0.89128843441162
C         9.30062030606545    8.75315359351522   -2.03430621578250
C         7.92797712680159    8.52494724421970   -2.22375669663373
H         7.37712695342152    9.07447977895059   -2.96797446628999
C         7.24711687465239    7.58513411193792   -1.48168538142671
H         6.19915669964786    7.41781976118130   -1.66416164783915
C         4.48690196000772    4.71819373317043    2.04570013072619
C         3.98365042324917    3.57874651716266    2.64443253969069
H         4.56637927045578    2.66990810761294    2.68061925672360
C         2.71353400621565    3.60048173157456    3.18591205919449
H         2.34049950339053    2.69851212554017    3.64029372252071
C         1.91969217839581    4.75367741158195    3.11972712545161
C         2.46489877401523    5.89530075637951    2.50692294635118
H         1.86474885205477    6.78469769710796    2.41847289038884
C         3.74299516776427    5.90794401132168    1.98693226282035
C        11.40771103425945    9.79952721468416   -2.66556514633507
H        11.76132821809589   10.59140297160614   -3.32126230957953
H        11.88601179961925    8.86169573519571   -2.97082451411540
H        11.72709813352830   10.03967391432726   -1.64807699472857
C         9.30163590168496   10.41911530443963   -3.81174246880322
H         9.97825684640705   11.15493591993033   -4.23965637543804
H         8.42607895683006   10.95126985695077   -3.43305233046694
H         8.98020602454521    9.73990443289869   -4.60962768202045
C        -0.22864857639021    5.87903436747000    3.32533949276373
H        -1.21108268570190    5.69697222897677    3.75485751176173
H        -0.34056006590370    5.99592088308567    2.24152753172038
H         0.14838875847544    6.81551792187731    3.74299277333259
C         0.04035914354575    3.55631353103898    4.10259548842956
H        -0.06992022551222    2.83254930815125    3.28552739430782
H        -0.94615551112439    3.77000368926442    4.50833044048117
H         0.63390171287817    3.09995405316020    4.89710238117605
C         5.51630649498931    8.66972592928957    2.80967198328444
C         4.11645819476669    8.99009886870796    2.80439318864775
C         3.82929517821343    9.60041120416199    1.56822161563706
C         5.08302930330241    9.81816885190718    0.86789592115741
C         6.11604190850959    9.29426025099205    1.64874352813242
C         6.27187908199541    8.18984637995332    4.00939485487077
H         7.20587999410573    7.70965029430914    3.72152813474626
H         5.68075333532038    7.47577932130117    4.58030946601247
H         6.51282194106041    9.03206675584492    4.66294533832494
C         3.19919746641543    8.81166120693604    3.97264723525464
H         3.25883633105987    7.80308563501159    4.38035855986087
H         2.16641319145581    9.01102717749674    3.69569257847839
H         3.47902181881165    9.51278477173762    4.76205621150017
C         2.52994819060621   10.21389944785398    1.14789708439376
H         2.37051020661683   10.10114831717339    0.07670272334439
H         2.53009614704793   11.28216348910470    1.37801142176927
H         1.68867653782375    9.75357107454712    1.66284835967159
C         5.21506423421751   10.62492647201966   -0.38403110533482
H         4.44701307299269   10.35490768124469   -1.10798513425889
H         6.18906646696388   10.47096984041736   -0.84476777367028
H         5.10340663014478   11.68811688358644   -0.15837854597713
C         7.58566554397679    9.48691326253207    1.45612247807947
H         8.15032540795886    8.62303706664333    1.80234852579477
H         7.91573703743478   10.35464881444268    2.03302770751517
H         7.83543967821220    9.65900332638300    0.41174671522680
N         7.21312285049141    5.87421776122735    0.24619393835880
N         5.72630236941406    4.82790042728862    1.40870865300867
N         9.96920345468987    9.72047495764775   -2.73990156680987
N         0.65476778356583    4.78777351013638    3.66763215012134
I         3.30053811311832    7.09282563340150   -1.10586739669423
Ir        4.67268273491364    7.53100258239509    1.14731144723063

