66
CSD_code = FOVYUM | q = 1 | S = 0 | Stoichiometry = C31H28CuN5P(1+) | MND = 4
Cu        9.01185071272043   16.13144452521064    8.67547959358044
N         7.46457139149493   15.46091713306009   10.04105805380455
N         6.73439598695776   17.91165384615399    8.45273260858397
N         8.05467639695851   17.84441309728017    8.29227099884598
N        10.24716514750772   15.24633197600827   11.20215410390543
N        10.32442406583126   16.17792864380188   10.25562489946207
P         9.72880889465014   14.59751761569409    7.20838661855543
C         7.85409741689280   14.89820224733999   11.18114341878511
C         7.06699823554080   14.93961373027815   12.32305267366700
H         7.40100542060378   14.47400539969689   13.23635934516561
C         5.84029084360386   15.58368476064387   12.26235446539327
H         5.20339820502005   15.62975266116119   13.13168563392548
C         5.44421614730364   16.16919523650546   11.06892710899964
H         4.49528553921580   16.67505267646481   10.99078221926952
C         6.29134016273504   16.08260126798701    9.97400075730211
C         5.96032234412118   16.71074089597047    8.63977139988682
H         6.22587163584103   16.00437461953726    7.84385714020218
H         4.90079942938553   16.96059404334466    8.57724782419185
C         6.31416895020614   19.18805972731758    8.43931936712042
H         5.28114926244151   19.44830759478984    8.54809495482908
C         7.42478503750141   19.98170508231960    8.25379409158613
H         7.45934023691563   21.04827818334008    8.18467522401988
C         8.49319050903486   19.08771357456739    8.17179623299209
H         9.53440156843220   19.29076205763882    8.02175460125391
C         9.21395015140519   14.24166935831019   11.15858021643447
H         9.34103696352741   13.57318142126070   12.01055405130944
H         9.31985586145092   13.67409937624778   10.22461593867822
C        11.21138068962329   15.41507095334059   12.12233156068898
H        11.31486410991602   14.76124486854202   12.96396210510223
C        11.95080014531678   16.51292937101838   11.74131220718604
H        12.79806643301587   16.93380344382875   12.23992847998224
C        11.34894580170634   16.95539003685286   10.56222531380340
H        11.61309129649642   17.78639903315451    9.93969087849152
C         8.49522083784071   13.45301976692210    6.51127196684665
C         7.39532505365543   13.15168574099584    7.31169206505901
H         7.31663351133717   13.60797321421563    8.29187825009700
C         6.42187204515381   12.28156206273883    6.85775821379353
H         5.57329480747543   12.04519341349827    7.48271370745044
C         6.53642970636367   11.71646302478968    5.59717875297014
H         5.77614595658172   11.03922040657709    5.23961085300720
C         7.62271652610391   12.02407510425426    4.79377892962875
H         7.70722419032897   11.58629653396700    3.81072839075545
C         8.60280380560805   12.89095658785686    5.24433598255056
H         9.44680189089578   13.13215733296996    4.61450441362789
C        10.61437036142656   15.22206108273125    5.75104704265248
C        10.20918072241905   16.45601123551726    5.25046157466048
H         9.41498402077203   16.99255561758849    5.75583304347701
C        10.82149519206709   16.98360231236584    4.12879519299444
H        10.50550651011913   17.93942023699394    3.73865138740712
C        11.84535228184816   16.28461810102905    3.50915988890290
H        12.32621243731295   16.69603358812696    2.63494395326677
C        12.25825651959103   15.06071404471462    4.01216415628354
H        13.05905749276883   14.52102619208188    3.52937809691063
C        11.64748010439252   14.52498725708813    5.13162868277307
H        11.97228479968570   13.57250377718544    5.52764383897914
C        10.94487748248251   13.48361743207011    7.97847983614044
C        12.11759309358562   14.07373035119032    8.44925394082977
H        12.28710541693494   15.12731444144855    8.26725750066314
C        13.05065131640481   13.31733965702608    9.13032890865623
H        13.96081469097517   13.77585844527926    9.48678603634112
C        12.81636945688811   11.96853108969889    9.35520238810611
H        13.54588903800781   11.37616267823453    9.88576649673533
C        11.64948258199118   11.38064159565254    8.89623073850250
H        11.46998580578812   10.32993322090484    9.06771701810494
C        10.70876373446129   12.13390926310279    8.21369664226737
H         9.79807361444701   11.67288673323685    7.85709802215785

