89
CSD_code = FOWDIF | q = 0 | S = 0 | Stoichiometry = C38H38N4NiO8 | MND = 6
C         4.45199439347526    4.56957561660849    5.26845521322307
H         3.50567719609104    4.09238370413011    5.53778856266164
H         5.13614642357225    3.79324244590230    4.89233300520941
C         4.23625049721899    5.61860579031868    4.18072582132928
H         3.83796809212760    5.15577774598862    3.28116057625686
H         5.18378986075115    6.09856255125640    3.94341336181467
H         3.54158834702741    6.38223482748077    4.52294979211139
C         7.04612823660363    1.52590902014772    7.73570870440763
H         8.03846785995025    1.71441786512069    8.09059981317643
C         5.26337957907515    0.48272792693118    7.01931680353085
H         4.64852240157025   -0.33110756737255    6.69639137376659
C         4.98894868589442    1.80825609025902    7.17213905436393
H         4.06556837662226    2.33228287442269    7.02279837580405
C         8.15775413308224    5.37728708920137    6.29696643085049
C         9.55889475543794    5.45499382739344    5.74741694264304
C         9.80162213811521    6.08835228977849    4.53565160273922
H         8.96821814488573    6.53328461608805    4.01306153569164
C        11.08429527374264    6.14243126502820    4.02315669807520
H        11.27021986022427    6.63224010167252    3.07858123187828
C        12.13235500172816    5.56719787420761    4.72448578626906
H        13.13640911216278    5.60875181086809    4.32809424281613
C        11.89865265430151    4.93989371715617    5.93602913700806
H        12.71642694066814    4.49862944307973    6.48807865370485
C        10.61077939611829    4.87942839970857    6.45384168081926
C        10.38620435359007    4.24077377356877    7.78691215960253
C        10.37789955167095    2.75643835662036    7.78058442530775
C        10.26042648289023    2.03062591573556    6.59708524492077
H        10.15693876178451    2.54912339325630    5.65599568211130
C        10.26222261334568    0.64797347822312    6.63118031691826
H        10.17297539565520    0.08735554949702    5.71161166466517
C        10.38550944064382   -0.02066402393038    7.84005699869296
H        10.39549751363804   -1.10142294015579    7.86082462062610
C        10.50654238486520    0.69601728959424    9.02061992712763
H        10.60706772946530    0.17349986180852    9.96063064206824
C        10.50330573585490    2.07766225633126    8.99110142954925
H        10.60161652951761    2.65559112946363    9.89586056791365
N         6.11224388874041    2.44034796163473    7.61412294127332
N         6.57168918233641    0.32053445397574    7.37714674692514
H         7.08273266034067   -0.54655896725672    7.39744395898671
Ni        6.32617933044410    4.19538506388500    8.22862178821144
O         4.95899188009689    5.15249201353051    6.44773537895910
O         7.95862916815125    4.44150567255514    7.12373456747374
O         7.32880226425625    6.20206435610610    5.89123427367364
O        10.35880191516530    4.89216605779418    8.80985722103866
H         5.77093877329046    5.66267040191877    6.18672635806439
C         8.20039567593048    3.82113482358668   11.18879847843436
H         9.14670601385602    4.29832771534412   10.91943529578915
H         7.51626345595090    4.59746404429295   11.56496411973986
C         8.41616838501211    2.77208069894702   12.27649827682048
H         8.81444302576914    3.23489533161945   13.17607283170432
H         7.46864308719374    2.29209034614576   12.51380767837314
H         9.11084867820161    2.00848097623311   11.93424867535978
C         5.60632307723614    6.86487203017445    8.72149166136686
H         4.61400991370564    6.67639008294935    8.36650994115723
C         7.38903078084707    7.90802645831931    9.43802311767334
H         8.00386211322440    8.72186029979318    9.76100161182699
C         7.66345251886463    6.58249162581647    9.28522644924659
H         8.58681119280404    6.05844688639955    9.43463572527132
C         4.49462473826035    3.01366122313942   10.16041268663418
C         3.09344519279987    2.93580207758252   10.70983319182075
C         2.85066466579145    2.30238385054726   11.92155057510832
H         3.68404189038683    1.85740862676681   12.44414890012216
C         1.56799089501591    2.24836276579194   12.43404372673724
H         1.38204019486359    1.75855329874235   13.37861219035268
C         0.51995991297495    2.82365343398087   11.73271943248781
H        -0.48409537550582    2.78214238661336   12.12910885518152
C         0.75369689775706    3.45095677865060   10.52118531312381
H        -0.06404580536549    3.89230103300665    9.96915189717292
C         2.04157517970070    3.51139701327312   10.00338728463329
C         2.26614988264909    4.15009140312298    8.67033204863548
C         2.27459896074538    5.63442965904388    8.67669612115155
C         2.39200668524296    6.36022198068775    9.86021507661095
H         2.49553359895072    5.84170759376524   10.80129121461632
C         2.39018736937038    7.74287639654917    9.82614945570597
H         2.47949028386484    8.30348237206655   10.74572258590936
C         2.26698150734231    8.41152894523063    8.61727331239085
H         2.25696637265946    9.49228828755471    8.59652343302216
C         2.14604802201659    7.69486861878121    7.43668771801470
H         2.04544613375393    8.21739713552832    6.49669190345220
C         2.14929085038767    6.31322356893292    7.46617955346063
H         2.05089801146622    5.73530622605920    6.56142128537414
N         6.54018153450254    5.95042006249908    8.84314134364988
N         6.08074915819850    8.07023667754147    9.08010018796250
H         5.56971680618257    8.93733541364144    9.05976424459155
O         7.69334751878870    3.23824827589784   10.00952859111347
O         4.69371657458271    3.94936057390831    9.33356173864838
O         5.32351230630103    2.18866749647548   10.56588859744583
O         2.29353470556781    3.49872576895623    7.64737995504140
H         6.88141449596578    2.72805935649535   10.27055240281255

