68
CSD_code = FOWGON | q = 0 | S = 0 | Stoichiometry = C22H29B10O5PRu | MND = 9
Ru       11.75908060850906    6.88520102339934    5.56746449351409
P        11.12599545528541    7.18894425329172    3.34083048429086
C        11.59112569675351    8.59655126717545    2.26939249240744
C        11.32891679047972    9.87893179391779    2.74654409690511
C        11.64574029550089   10.98799868933956    1.98507163405033
C        12.23563806540204   10.82972210101318    0.74081380188146
C        12.50292524519342    9.55836874108232    0.26307496435392
C        12.18241589283324    8.44486894980255    1.02089338562086
C        11.76562388820182    5.78122708823508    2.35893046811830
C        10.98504803968456    4.96156511274638    1.55383163758869
C        11.55926515828576    3.89065197521269    0.88879979167655
C        12.91325531137378    3.63137335720544    1.01696178995213
C        13.70000837093742    4.45129542625628    1.81249617937297
C        13.12893552080791    5.51735114685580    2.48146016387312
C         9.32573302742793    7.07003768386141    3.05194806857784
C         8.68002246922056    5.98369150726634    3.64237815896365
C         7.31068024450331    5.84205625761602    3.52966330785141
C         6.56959382565508    6.78609988334461    2.83459729034817
C         7.20552096217892    7.86770542964055    2.25007522976070
C         8.57869889793422    8.01332435918138    2.35725901200469
O        11.43699259637457    4.63062553585257    5.05960799780706
O        13.50059745430161    4.49136923835986    5.83347221016349
O         9.61777201602274    6.84555782765973    6.25070099165934
O        10.35366571671359    7.70186384008791    8.17263931538110
O        10.56007310556417    9.59575962948749    5.89711560878911
C        12.46478543437113    3.97666887933479    5.26587502153698
C        12.57842480792519    2.53365885486270    4.84539193628530
C         9.42019698331740    7.26379905780619    7.39273670822203
C         8.02806907181541    7.28362818782095    7.97897066587609
B        13.41704094286215    5.86558208714293    6.29098848191543
B        11.66174839934515    8.84018726652965    6.22651447009801
B        14.20049259762734    7.23791328141464    5.69368983266477
B        12.62584642102408    6.26499376164857    7.75469692463018
B        11.74147367634915    7.70060704077259    7.65061556465593
B        13.28155800116615    8.69383307338034    5.67989244731504
B        14.37514036081920    6.67253254810843    7.46141363628329
B        12.82248124303424    9.15631992932230    7.43540548252440
B        14.36822810249286    8.39134307410641    7.06960538745520
B        13.35213718776776    7.75977512075370    8.40356341758294
H        10.87506657919294    9.98966924080427    3.71986305041152
H        11.43677218460100   11.97913113699810    2.36058602012536
H        12.48767407948740   11.69529936527204    0.14591467443458
H        12.96290935132796    9.43124087332085   -0.70622701364515
H        12.39279225445755    7.45774894408970    0.63604339145246
H         9.92778437871462    5.15650981503862    1.44590810466745
H        10.94511689473791    3.25547121293648    0.26673634670201
H        13.35536932163796    2.79288388428780    0.49835725888746
H        14.75745877210113    4.25442441601073    1.91443317097201
H        13.73114176264140    6.16041453336323    3.11169408716403
H         9.26586023742621    5.25948069282757    4.19290811147458
H         6.81461252773099    4.99838802852202    3.98810911757269
H         5.49747212803697    6.67951806134493    2.75163042050012
H         6.62979182567166    8.60440849057423    1.70809103795663
H         9.06687034217972    8.86125653121680    1.89888240446821
H        10.35458551240673   10.32952009095323    6.47709357378788
H        11.61581319168707    2.04126714797568    4.95394385536598
H        13.33602419677920    2.02911564963658    5.43741231437413
H        12.86431162367964    2.49998515742143    3.79443723518833
H         7.30021015883006    7.11399076381748    7.19085130053131
H         7.84327797931498    8.23677990343028    8.46765532957894
H         7.94442008078472    6.49592383029824    8.72587629856820
H        15.03676051671383    7.08878822807732    4.87093494857768
H        12.21805691778159    5.36456772211316    8.41177223396996
H        13.46574282084553    9.46194025635195    4.80053519635820
H        15.29850193100270    6.10052901812735    7.91413771675660
H        12.74150676812852   10.22793200763539    7.92451209786199
H        15.34922781270311    9.02934362279119    7.20173870121358
H        13.52601996434581    7.92088709385520    9.55578646277001

