63
CSD_code = FOWGOO | q = 0 | S = 0 | Stoichiometry = C30H28N2NiO2 | MND = 4
Ni       13.71816515705544    5.29206553436737    0.00001350286227
O        15.18847511209808    4.77561918739181    1.01410276887706
N        13.63820197647630    6.96923419793703    0.98659540911186
C        17.38904627710902    4.99479608542927    1.76155024022091
H        17.53174998556709    3.93832868769208    1.59361369472860
C        18.40943062651390    5.77622957798202    2.22689764745801
H        19.37396399797248    5.32945322495434    2.42563068657425
C        18.24079555375554    7.15092288462919    2.45744876148411
C        17.00476823248640    7.69753429580542    2.21837935473091
H        16.83656558024144    8.75073610145868    2.40221666334833
C        15.93774335142937    6.93123464305003    1.72178356179866
C        16.11644387980762    5.54131118425049    1.45805765609494
C        19.39002009878967    7.97186488143695    2.96150917796697
H        19.08693887831395    9.00229258919532    3.12942560991570
H        20.20734237155684    7.96436919375622    2.24064734230125
H        19.76906150125994    7.56394702600031    3.89804493916965
C        14.64451041365738    7.50599024485063    1.58330490456852
H        14.50287340042716    8.46955526189590    2.08361773734712
C        12.34881076374648    7.61223619925463    1.11101866638369
H        12.10130922121559    8.08099220347296    0.15098845032728
H        12.38604697280283    8.40089596250552    1.87908830868078
C        11.23703454499580    6.64156774991763    1.44747600547271
C        11.49039621126781    5.34166430807795    1.87197122978548
H        12.51472660304859    4.99358395019002    2.02345798868695
C        10.44220110296815    4.46822887353151    2.11071049433330
H        10.65183072880856    3.45612148430439    2.42481999231134
C         9.13291352541577    4.88504887090958    1.94854750423027
H         8.31815539067719    4.19958630203038    2.12853570634205
C         8.87344986799402    6.18612021454032    1.55372314734410
H         7.85412665963439    6.52101783728759    1.42851968488363
C         9.91865050040940    7.05574920780366    1.30266179726534
H         9.71097408587055    8.06648957054676    0.97935246189776
O        12.24788197442961    5.80851477954998   -1.01411696037073
N        13.79822246539460    3.61496388941626   -0.98668334268598
C        10.04729624584809    5.58927883257420   -1.76150645296419
H         9.90455946679882    6.64573777772459   -1.59354574487805
C         9.02692107059216    4.80781429507594   -2.22682037500352
H         8.06235886743460    5.25455578896848   -2.42549085019271
C         9.19559371281090    3.43312830660064   -2.45738659920402
C        10.43165185821792    2.88655890979476   -2.21837908480171
H        10.59988379154087    1.83336366446354   -2.40222629165748
C        11.49866666330516    3.65288994193842   -1.72181415298278
C        11.31992599829693    5.04280249535222   -1.45806195495085
C         8.04637486484491    2.61214680999783   -2.96139499701268
H         8.34948307862933    1.58172731257069   -3.12931147975464
H         7.22907650428676    2.61962369060400   -2.24050561650399
H         7.66728950631034    3.02004260297758   -3.89792251175313
C        12.79192397953092    3.07817875588446   -1.58338168214674
H        12.93358799065967    2.11463226063776   -2.08372278060652
C        15.08764137615245    2.97202264563209   -1.11116614133214
H        15.33515622540258    2.50319349770392   -0.15117526370692
H        15.05043181929318    2.18341882289043   -1.87929439362843
C        16.19939608696528    3.94273945727794   -1.44756227640557
C        15.94599944119974    5.24263468494744   -1.87206987893552
H        14.92166576182745    5.59065631346405   -2.02367992513072
C        16.99416571078447    6.11612794497231   -2.11072207884352
H        16.78450242322889    7.12822711939811   -2.42483725075840
C        18.30346368860132    5.69937681011013   -1.94846046519361
H        19.11819921503259    6.38487175980733   -2.12841976095838
C        18.56296574930258    4.39831661199129   -1.55362267175803
H        19.58229726855217    4.06345689999428   -1.42840680415789
C        17.51779320291768    3.52862381190766   -1.30265997632092
H        17.72550141842033    2.51788596931209   -0.97936333190789

