57
CSD_code = FOWHEF | q = 0 | S = 0 | Stoichiometry = C24H18N4O10Zn | MND = 4
Zn       10.04317730637744    4.45837313660596    3.67252036276710
N        11.09789551480962    3.02380441391383    2.54462169695469
N        15.31223188398790    6.92676757574681    7.71679391765462
O        11.36485665393009    2.07211753999035   -0.90061399111562
H        12.00673523486050    1.53345700289343   -1.38142861064191
O        11.51762498908619    4.78111484230676    5.07816852831641
O        11.43469815302624    5.89579646597686    3.20187829392693
O        14.99969915944496    5.92321803528331    8.32018262038135
O        16.14587903729844    7.72412807866946    8.09282792579551
C        10.86670129034919    2.90681404235740    1.24915163781455
H        10.01336105402664    3.43464380192753    0.85285132112828
C        11.68025569711218    2.14318253974572    0.40742504795687
C        12.77508946703495    1.48969003729476    0.96555490553994
H        13.43310337662547    0.89341825390949    0.34705099895705
C        13.00323050584181    1.62288390383421    2.32461491372768
H        13.84271237894109    1.13125055649173    2.79005350932559
C        12.14044397998508    2.39755294027289    3.07978047395119
H        12.28334462964057    2.53489368643911    4.14051191437136
C        11.91902471376049    5.70628438453769    4.33678698610292
C        13.01983272170870    6.59871453013667    4.81829819302903
C        13.64267626560243    6.34107120905208    6.03065095184042
H        13.34145801640144    5.49401206662483    6.62800152896467
C        14.65151679793921    7.19039148909625    6.46173695494168
C        15.04116015700111    8.29243451842641    5.70737118878264
H        15.82701986711273    8.93260757843227    6.07879115592077
C        14.41229703719286    8.54065630540369    4.50113871545580
H        14.70603336917456    9.39345552823641    3.90861538159876
C        13.40733044938946    7.69705840959162    4.05610888368566
H        12.90148993873713    7.87149879720489    3.11881955857758
N         8.98901464385920    3.02409200918673    4.79957747891082
N         4.77442090346717    6.92632035169665   -0.37203701437188
O         8.72144892048036    2.07292737921441    8.24484064570215
H         8.07959739950411    1.53421311212483    8.72563067346097
O         8.56819963986398    4.78050877485099    2.26724067567570
O         8.65091725733889    5.89497802421932    4.14365415308653
O         5.08721839607727    5.92297798526162   -0.97563403193448
O         3.94179533775030    7.72442031523491   -0.74876090873513
C         9.21995881402534    2.90731719006562    6.09509542609430
H        10.07319043198597    3.43527873428876    6.49144346388664
C         8.40619915699528    2.14389068662759    6.93676318556503
C         7.31142206202225    1.49041293231047    6.37851906304909
H         6.65333806020451    0.89414879440831    6.99692935703580
C         7.08341306868613    1.62359890969979    5.01945068998070
H         6.24398601769023    1.13199132547805    4.55390517287172
C         7.94641821547618    2.39800492004557    4.26433775875563
H         7.80364726442468    2.53540540191663    3.20360512615682
C         8.16655892279638    5.70541507053699    3.00882352549937
C         7.06544408762751    6.59751699465287    2.52746195040647
C         6.44244454433729    6.33958212123568    1.31524181870864
H         6.74333263549188    5.49215872319009    0.71826216894522
C         5.43461908851164    7.18970630669259    0.88336256700914
C         5.04583542996788    8.29255416091338    1.63700983908064
H         4.26125852532080    8.93373181937991    1.26462976627686
C         5.67436899805480    8.54062276483165    2.84348638118191
H         5.38130479168370    9.39403015563982    3.43548458645575
C         6.67885881440767    7.69666541619915    3.28895835174759
H         7.18390892560071    7.87053794965666    4.22675316379929

