90
CSD_code = FOWJUX | q = 0 | S = 0 | Stoichiometry = C39H45Cl2NP2Ru | MND = 8
Ru        4.19816402752204    2.65017960874158    8.94189503047403
Cl        4.98405638981364    0.39684992076339    8.62513601362402
Cl        3.28050140231712    4.71764636162710    6.19721139600145
P         2.02056469943411    2.01548306229440    9.26252017059637
P         4.05039538941487    2.95557857040202    6.70677903171289
N         1.69150203555297    1.06499886921073   10.62718998320132
C         5.43734657531324    2.85797677860120   10.80969877027886
C         4.31890502662312    3.72187776013826   10.94176834683906
C         4.36212506156086    4.67552122378613    9.86508081530241
C         5.57490638227303    4.44195362590880    9.13000612868552
C         6.21720920359580    3.30125253975341    9.68297269987681
C         5.91817866749034    1.85041820012293   11.80923718921335
H         6.80604998050406    2.23732291583409   12.31502937982214
H         6.19466270022535    0.91587008530599   11.32005269730191
H         5.15719412712067    1.64097545404634   12.55772489226413
C         3.43146715964617    3.79043615297059   12.14636298416529
H         4.02547120324335    4.10695827172341   13.00700420195839
H         2.99145272888384    2.82122242043046   12.37270954521230
H         2.62981658347941    4.50920005042349   11.99965150225851
C         3.53872550861407    5.92380193571420    9.76228010148085
H         4.04896465318420    6.74468458733113   10.27221774544587
H         2.55926472049985    5.79171569629841   10.21649084226354
H         3.38987290499611    6.21060960370083    8.72275244352260
C         6.17701373524271    5.39589464584717    8.14485244994605
H         6.75215540582336    6.14695450614191    8.69185984689778
H         5.41350307803473    5.91449206956248    7.56888061890778
H         6.84987505973834    4.89170728443266    7.45311782964743
C         7.60590240552366    2.81733835761107    9.39846573920349
H         8.27611825796574    3.15434122075503   10.19314170342692
H         7.97499604744354    3.20108581300244    8.44978193028627
H         7.63828557841176    1.72842948928653    9.37164400073834
C         1.09664099536240    1.10396983341251    7.95877027523859
C         1.69956258524550   -0.07996050693204    7.53937421363004
H         2.69642155951155   -0.31716113925481    7.89023962626297
C         1.03893985593964   -0.93586786144255    6.67899499898025
H         1.51212315949446   -1.85496084955386    6.36639643723889
C        -0.22732741264861   -0.61340822067883    6.21984712441730
H        -0.74548680042451   -1.27954903164159    5.54551729722809
C        -0.82960236442779    0.56365735471929    6.62934466181418
H        -1.81861851476554    0.81685250169729    6.27465148488283
C        -0.17914287566930    1.41594897205134    7.50427280278260
H        -0.67053079751906    2.32159790356271    7.83062022690269
C         0.92015829348142    3.43650074167792    9.56778302626192
C         0.38661580776467    3.74490915425199   10.81286300980888
H         0.57014774234835    3.08845322749338   11.64890897154436
C        -0.37604239081107    4.88817241222195   10.98050525498508
H        -0.78951468292212    5.11929578745226   11.95226730918801
C        -0.60778098770940    5.73738105135529    9.91130811979899
H        -1.20059022877025    6.63003257058079   10.04764356898239
C        -0.07320781960983    5.44026693179906    8.66718662862176
H        -0.24609311241816    6.10096169418627    7.83021629112074
C         0.68731084656795    4.29909040566611    8.50050733379126
H         1.11421402880733    4.05855556359165    7.53711366721023
C         2.69489830556259    0.10256700623144   11.06059939103580
H         3.68306808471084    0.53261285355515   10.88671916485487
H         2.62318977240053   -0.82998701565190   10.48355128359706
C         2.49528191730394   -0.21567738622426   12.53928188697178
H         2.60550446937358    0.69617465458766   13.13116896214589
H         3.25818180710509   -0.92579982122221   12.86223493572886
C         1.09981103827618   -0.79199749408735   12.75811771211765
H         1.01495873590833   -1.74454476260220   12.23015516714449
H         0.92545341204646   -0.97775979054563   13.81982314181222
C         0.05987187497039    0.18293226438165   12.21392070688679
H         0.08808357816439    1.10566063439647   12.79740743807773
H        -0.94291360759260   -0.23980155959661   12.29734626643868
C         0.35351885452948    0.49806882734200   10.74821705677146
H         0.26736550228764   -0.42669975124965   10.15791651905169
H        -0.37475727928799    1.21429537701250   10.35920539621031
C         3.19356432544046    1.84756429950918    5.52482100020321
C         3.80298276250999    0.62482210290238    5.25572917815403
H         4.71619448813222    0.35993708588797    5.76863049413865
C         3.23097747832944   -0.24846737288070    4.35165639182609
H         3.71336056203984   -1.19112101592506    4.13918347010495
C         2.04319452767207    0.08318636378669    3.72002296320578
H         1.59901391603599   -0.59794284940129    3.00904420907219
C         1.42141453959927    1.28542008436220    4.00747227901129
H         0.48819075078541    1.54178862865280    3.52769720067351
C         1.99125125177062    2.16791778711863    4.90744221180027
H         1.49883662539320    3.10626652949446    5.11852924989700
C         5.64733864757800    3.02687751546170    5.80020356279956
C         6.66343137176130    2.17370655278430    6.21710080815706
H         6.49638904041923    1.51877110820076    7.06118964007422
C         7.87759751420105    2.15896869741498    5.55449692882628
H         8.66115425285638    1.49392108411444    5.88741990705546
C         8.08768368353397    2.99595976365119    4.47166321402027
H         9.03784577167831    2.99102367385987    3.95772273620490
C         7.07389627169231    3.83852424601032    4.04629473600959
H         7.23076061244277    4.48847536637472    3.19770045634093
C         5.85569471592165    3.85349653728787    4.70126724878579
H         5.07366683788304    4.51424419645812    4.35689872209337

