31
CSD_code = FOXCIG | q = 0 | S = 0 | Stoichiometry = C6H12N6O4S2Zn | MND = 6
Zn        0.48175239751235    2.81242721164907    2.87339108179273
C         1.55060397948615    2.35172417659756    5.48759732303323
C         2.98750587971092    3.75722441180901    6.67642565018461
H         3.80575461892246    3.50624362300970    6.00065152283532
H         3.33858047919630    3.82959281640524    7.70210793172374
H         2.53222529191879    4.69841609677761    6.36352884535773
N        -0.17822261288477    1.12525107482119    4.44235162781516
H        -1.14418934307048    1.44226273668924    4.49484927272051
H        -0.16386851241461    0.12150307487698    4.27459082847114
N         0.54093894898763    1.45017995234993    5.60019588945818
H         0.10165815527402    1.36227193521506    6.51076931891780
O         2.03019752197877    2.69434174524711    4.42328471250505
O         2.00100783290269    2.72588133795346    6.67630826563408
C         2.03107093977263    3.62426936408519    0.65355866071457
C         1.70377003526020    5.53053101033911   -0.64611272023189
H         0.61750419712960    5.46707344729173   -0.56845392571407
H         1.99924488139352    5.87304643832106   -1.63410070724353
H         2.07756941894332    6.20382647954353    0.12647497554303
N         2.30064128627006    1.57613522645680    1.80207401900474
H         3.13019975436071    1.39452505316727    2.36299322521970
H         1.88540188100646    0.70173421216234    1.49182637267140
N         2.60607153317841    2.40227489991485    0.71435830560557
H         2.97223659514190    2.00574732733376   -0.14421244964086
O         1.41061835687362    4.13166844561133    1.56968273785014
O         2.28325677962078    4.23379371975549   -0.49859471062817
N        -0.45264152437241    3.97900833214979    3.97722856975683
C        -0.50055328064620    4.54792288507670    5.00952141758758
S        -0.59561620115997    5.25331905826139    6.41419874752064
N        -0.49306079217715    1.90476650120735    1.55569373773228
C        -0.43227518436426    1.59954875223080    0.41756918206745
S        -0.30158331375520    1.12938865369314   -1.08165770825933

