56
CSD_code = FOXGII | q = 0 | S = 0 | Stoichiometry = C26H24Cl2P2PdS | MND = 4
Pd       11.36465656531977   10.62042606948664   11.09221104242231
Cl       13.55001954950608   11.23701591244635   11.04015285740260
Cl       10.74816294526760   12.75427790453956   11.42074318425917
S        11.98591926758858    8.25867748470291   10.92673231191827
P        11.27979168696359    8.74732036877974    9.14686717369152
P         9.26798089723599    9.95725722453822   11.53015041653191
C         9.41059924790044    8.86532854038421    9.01526333810684
C         8.74722758153181    8.60413978695206   10.36340062570388
C        11.63287043077974    7.37971740925876    7.99687656271142
C        11.33753914045247    7.55099839815475    6.64787151441290
C        11.59496338062345    6.52948795731866    5.75431970918093
C        12.14560914438588    5.33840073775832    6.20438336035493
C        12.43977051322171    5.16884504088299    7.54693461889909
C        12.18467189188767    6.19005090286787    8.44616357866011
C        12.07034324665045   10.17671370983548    8.31822005316315
C        13.37457327030132    9.97311257035988    7.87975603222189
C        14.11340338635347   11.04156219449426    7.40502556120392
C        13.55672836783872   12.30887592595479    7.37641967363016
C        12.25337268103721   12.51243909053343    7.80506025899279
C        11.50315812553273   11.45270085863396    8.28369940677176
C         9.37844636621246    9.14150792014649   13.14659957522489
C        10.46799764388990    9.49235695869963   13.94533492275938
C        10.64004234601543    8.88962187296388   15.17878946593583
C         9.73388650740797    7.93637788242040   15.61549927995852
C         8.65422764679287    7.58250982894792   14.82132428747622
C         8.47247894593911    8.18062760641788   13.58745227156817
C         7.80212140529315   11.02559331769899   11.59677870340764
C         6.90856332097909   11.01555599850335   12.66094485284829
C         5.80932824856775   11.85621256516650   12.64141929862785
C         5.60123257167486   12.71061655067531   11.57160513376867
C         6.50142950578218   12.73629978655396   10.51804204140949
C         7.60084824878240   11.90069235200993   10.53261792704681
H         9.12976681196875    9.85386159421021    8.63913902887356
H         9.10569627800411    8.11538007270818    8.27802810566821
H         9.09125375275545    7.64851167496387   10.77230566972203
H         7.65882907919387    8.58085966098405   10.25841121481669
H        10.91678760087401    8.48918006992582    6.30832031852259
H        11.37083320511153    6.66049040132297    4.70595532179027
H        12.34917528695195    4.54283333664500    5.50334716354825
H        12.87193730853030    4.24251778070476    7.89455415021629
H        12.41566072944513    6.07962078398695    9.49701083110430
H        13.80809958564454    8.98222200900945    7.94121114183432
H        15.13233188415620   10.88679564521021    7.08370618400114
H        14.14473984926793   13.14708387075659    7.03447639445923
H        11.82623696276100   13.50388340111779    7.79510670451521
H        10.48065884885377   11.62653038767054    8.61958857122265
H        11.19197588303397   10.24231751341482   13.59177877645997
H        11.48425711758173    9.15767190433131   15.79611012072152
H         9.87150313571757    7.46187325012172   16.57578013561765
H         7.95357078650423    6.83480249616418   15.16366086699087
H         7.63369215394278    7.90099006064954   12.96406047723396
H         7.07685614843857   10.36298116624681   13.50561967998651
H         8.33175429391387   11.94602370058811    9.73631280656105
H         6.35160503499214   13.41758178894549    9.69367688090334
H         5.11629335965999   11.84887776574058   13.46989678147826
H         4.74472082498907   13.36818893649571   11.56538363338461

