91
CSD_code = FOXKUZ | q = 0 | S = 0 | Stoichiometry = C47H39N2P2Rh | MND = 6
Rh        2.54119221882569   15.11405495895227    3.78499373954225
H         3.84922304659550   15.47372948850455    3.13032382961602
H         3.10957987272549   15.56103087043175    5.10829096704492
P         1.66474991276004   17.17389922041341    3.43830696682264
P         3.26347274570325   13.00968879905824    4.18838933999685
N         1.74407500999917   14.45963608035234    1.88598190450258
N         0.56332612161815   14.57330900354388    4.56642484734730
C        -0.15421556058038   14.55081084633914    5.67928137186088
H         0.31258705259197   14.90014033498693    6.58896697881637
C        -1.48121077914147   14.09496406840192    5.70714035059582
H        -1.99775782385227   14.10774273940606    6.65611645816066
C        -2.12670249386754   13.64339797061628    4.57588702254394
H        -3.15065433040271   13.29868394326563    4.62346141470134
C        -1.41420741413106   13.65020080916389    3.36871349300056
C        -1.65844159104979   13.30582729572707    2.03091544215748
H        -2.57875803923257   12.91142406590588    1.64123186575911
C        -0.49495846803397   13.56340796336466    1.29047811656146
C        -0.07744189888393   13.44259453877894   -0.04176805900146
H        -0.74043989524553   13.06224611177652   -0.80669133241179
C         1.21136305096272   13.81984384835394   -0.34996328678990
H         1.57102174159028   13.73464390831360   -1.36527350099828
C         2.09419814174029   14.32304049160641    0.61756528207610
H         3.09929774554154   14.61252389075480    0.34328113966532
C         0.50011676937629   14.08328962400882    2.18936733114315
C        -0.06177366464383   14.13781498458432    3.46672119809069
C         2.71675495981899   18.56938892013132    2.90203276387065
C         4.01522060591751   18.61389119763993    3.39768376735160
H         4.36670189871027   17.79261375647598    4.00850996667206
C         4.84110586625886   19.68241110425824    3.10127959004088
H         5.84958198245163   19.70910227287634    3.48767710178041
C         4.37522819398857   20.71706369977632    2.30675003971283
H         5.01894674181932   21.55151962486505    2.06990621538676
C         3.08132626727970   20.67977365860366    1.81365340672900
H         2.71611498335457   21.48556427843030    1.19305357923409
C         2.25033392783740   19.61508695041186    2.11273042761064
H         1.24416925085021   19.59505731394324    1.71822390331090
C         0.34682495540407   17.11832068799292    2.18643779760879
C         0.69259505045297   17.13681291978405    0.83779368500130
H         1.72295450132082   17.31264893683590    0.55622974408056
C        -0.27161910075664   16.92063746280699   -0.12904327960835
H         0.00206549824213   16.93712579636783   -1.17409766601913
C        -1.58124146242952   16.66463321526630    0.24207362499407
H        -2.33038523062537   16.48185448862688   -0.51396004849802
C        -1.92819712895933   16.62936165532458    1.58264619272482
H        -2.94579395162470   16.41609858184886    1.87430435613960
C        -0.96861904683588   16.85020187204417    2.55339660216635
H        -1.23885500145539   16.81137571206802    3.60059265118543
C         0.83962909241492   18.03980100665732    4.82615643761651
C        -0.05058836548880   19.08156152281427    4.57981940173819
H        -0.29358985084346   19.35641221565913    3.56328533963164
C        -0.63510307668166   19.76067461203250    5.63187273320390
H        -1.32955754927116   20.56392037310154    5.43164110762918
C        -0.33247299162322   19.41572854923844    6.93962972649274
H        -0.79353848222184   19.94728805542084    7.75916253306008
C         0.56413062062334   18.39178136133645    7.19080414999317
H         0.80794282421761   18.12407833108492    8.20893430092464
C         1.15000197900683   17.71032220100881    6.13853997400046
H         1.85616343097569   16.91352177372733    6.32629876424840
C         5.02664243475843   12.65367247923600    4.51364589583703
C         5.91075220920894   13.69216768117626    4.77155940427579
H         5.54780597161298   14.71008123211763    4.72860996471980
C         7.23549150918660   13.42105728720264    5.06836823187281
H         7.92029768650041   14.23290853752956    5.26562538181732
C         7.68266972668639   12.11174802463170    5.11156667105135
H         8.71644516913638   11.89896691262030    5.34151635903420
C         6.80192292436966   11.07095691124481    4.85966568752985
H         7.14945600364134   10.04848800449260    4.89401532753154
C         5.47840543582380   11.33777111758703    4.56657189575575
H         4.79314284211380   10.52479959077452    4.37075080351012
C         2.58224118098486   12.15927691018855    5.66020053354662
C         2.45707873830389   12.91602915742630    6.82076123583214
H         2.72846171448248   13.96293025357386    6.79085266912386
C         1.99490508247291   12.34210038134011    7.98971612523640
H         1.89660503822139   12.94032485373780    8.88417367711278
C         1.65667821988047   10.99919756615079    8.01298572891459
H         1.28763760986521   10.54772556559787    8.92220325432909
C         1.79822478080327   10.23480181107145    6.86737814406553
H         1.54503489542687    9.18440986860832    6.88409837265654
C         2.26409041465216   10.80639173315788    5.69633593958734
H         2.37035750450230   10.19377240566915    4.81242402146774
C         2.88508023252150   11.87189189749359    2.81972526725774
C         3.81857802571993   11.67965743606403    1.80610782205475
H         4.80292682159857   12.11901355423675    1.89995632507876
C         3.48756167141628   10.93718663502675    0.68773164184353
H         4.21887322654027   10.78640619442374   -0.09323894936753
C         2.21719051613280   10.39936903119003    0.56168073470957
H         1.95709978572252    9.82663230757207   -0.31633120585699
C         1.27593586370255   10.60748675295040    1.55620296774040
H         0.27839016046548   10.20655369172763    1.45294670104242
C         1.60329703920680   11.34623577240034    2.67786277189248
H         0.85934670117735   11.52290847661547    3.44356882797184

