53
CSD_code = FOXMIP | q = 0 | S = 0 | Stoichiometry = C20H26N2NiO2S2 | MND = 6
Ni        1.60379832942127    3.56890914316847    7.91885809040082
S         3.22859269379635    4.80713898482264    8.77743416073127
S        -0.11000253498699    4.53544791567091    9.09336769177309
O         2.56713942754685    2.53553937094404    9.71041265123355
O         0.10381902587553    2.48344362761386    7.65680332758353
C         3.27603448215316    3.52654125492417    9.92630379896834
C        -0.58556518165697    2.98458025519928    8.57205567580322
N         2.85146123902044    2.39140947686836    6.55966768643047
N         1.33274658515852    4.83263378991018    5.93255623594824
C         2.41345379519853    2.73511473081616    5.19898703648286
H         3.11324669122177    2.32118656909456    4.45666614696587
H         1.43330171534969    2.28228008705179    5.03855845515431
C         2.29954392600896    4.24920035287480    4.99813017031015
H         2.01557660324400    4.45275024575396    3.95340779407363
H         3.27161168872486    4.71072895208895    5.18087747530049
C         2.57884143639890    0.97412475618632    6.81908845811713
H         1.51550114459353    0.77283057333729    6.71080592815297
H         2.87033940434241    0.73518339936112    7.84084169080888
H         3.13983128545762    0.33506826462185    6.12320896912593
C         4.29600391374869    2.59173453483159    6.68186812655239
H         4.83509809102678    1.97857733561007    5.94597353580556
H         4.62184660072082    2.30383930366607    7.67970718455900
H         4.55554087810191    3.63685885481805    6.53376930456519
C         1.60395520083720    6.25620197503438    6.12872416045297
H         1.50396644118708    6.81713521652298    5.18858242458901
H         2.60875293367580    6.39155515218560    6.52412697495024
H         0.89920902659801    6.65439203714726    6.85697349268361
C        -0.02597349907629    4.69391515400218    5.41211403339678
H        -0.73002965691289    5.11390280113617    6.12892783954009
H        -0.27411369438123    3.64463923407774    5.26854567665873
H        -0.14059545624824    5.22232917168121    4.45395789243782
C         4.15444697120790    3.63915138817918   11.09877290636224
C         4.16394765784120    2.59899850008112   12.02790916415215
H         3.52401532639527    1.74580810555705   11.85757680797587
C         4.97646353355235    2.67232900783291   13.14206685264547
H         4.98006847056123    1.86617910147316   13.86122322146934
C         5.78580545634714    3.78042554151540   13.33773741072664
H         6.42072362270598    3.83735269596606   14.20997325137421
C         5.77983651325686    4.81715486352311   12.41718688444307
H         6.40982970874306    5.68057187421295   12.57306652801339
C         4.96769069237913    4.75081971675229   11.30184182915248
H         4.95148927210148    5.55365283045372   10.57969693282043
C        -1.74587305062388    2.30437228669921    9.15104059911431
C        -2.05654109833254    1.01067356279546    8.73131542679809
H        -1.42794066896068    0.53522184960746    7.99285359150820
C        -3.15007086380855    0.35563213489817    9.26202404094802
H        -3.38810364329848   -0.64655102379214    8.93682636285382
C        -3.94118411861050    0.98330675276540   10.21168657380867
H        -4.79672124683297    0.46956525750037   10.62502850770982
C        -3.63546807765238    2.26847244297799   10.63318720428609
H        -4.25248271737784    2.75460295719696   11.37426030090445
C        -2.54216195424494    2.92872016858938   10.10819544476152
H        -2.29130232152338    3.92934746449350   10.42822806864320

