75
CSD_code = FOXROB | q = 0 | S = 0 | Stoichiometry = C32H24F6FeN4O6S2 | MND = 6
Fe        0.43773079620345    4.69634903929228    3.28523917045718
N        -1.31654158035010    3.92458254491523    3.64471396404541
N        -0.47884114875965    5.42308070487724    1.78629571666535
N         2.05462070448444    5.71225537029744    3.20627102009097
N        -0.16501966804984    6.28064421935443    4.24910436274427
O         1.47993577863021    3.14522380776327    2.55908501782286
O        -0.52749253498341    2.27137383542120    5.67622258141929
O         1.80537121082800    1.54061471117232    4.40916311101420
O         3.50280639526519    3.29389975421701    3.96737297157757
O         1.18693664810845    3.91256190499030    4.93655867493994
O        -0.04881780037414    4.28119801472854    6.92215179012634
S         2.38821679325050    2.50956337155122    3.53547388219072
F         4.07443980078832    0.49215956030474    2.76119174645581
F         3.85147933740957    2.03813352790327    1.28228895492114
F         2.25607084235318    0.63582725475758    1.61146195655831
S         0.44306139972496    3.25188225807485    6.02323579661886
F         2.45660608980306    1.44039098589533    6.85488931968791
F         1.24599989601297    2.37840910132681    8.33784762829633
F         2.68709481387627    3.54487186838212    7.24844114396609
C        -1.40026925953952    5.93897081719365    4.94141242883454
H        -2.05667994652110    6.80828433643227    5.06797353392055
H        -1.14311381578082    5.53479596672663    5.92839069376473
C        -2.09444121163424    4.82490606506603    4.22156133292494
C        -3.49497463483667    4.74397273216109    4.21613156668900
H        -4.07074058174360    5.51801703433512    4.69893830337651
C        -4.10390439252893    3.69552645838441    3.58316978047276
H        -5.17987379169862    3.62317808433281    3.52338829631786
C        -3.30240074015094    2.67665148137252    3.03686909066506
C        -3.85180186623744    1.52444293724546    2.43896465140657
H        -4.92666562548460    1.44847188232064    2.35894613371665
C        -3.03984390221850    0.51431779792816    2.00604138711418
H        -3.46533921312984   -0.37292858690741    1.56109963631167
C        -1.65022828204707    0.61138963691814    2.17488267847396
H        -1.01931000592868   -0.21392089562462    1.88454254741184
C        -1.08347845326806    1.73360119455680    2.71594449625363
H        -0.02883497387858    1.80146509584344    2.89110867497667
C        -1.88748347477672    2.80903960627080    3.13014090485381
C        -0.38158611150000    7.29958743036840    3.22258699703120
H         0.59206182657228    7.69169146996698    2.92195870015513
H        -1.00202291939246    8.12744075277131    3.58863288746032
C        -0.99788272722861    6.62161293045108    2.04052005890895
C        -2.04541041219367    7.18847834853453    1.31128455102008
H        -2.41193424928157    8.16625992071522    1.58218061786798
C        -2.59873770884371    6.48561136122604    0.27266924600136
H        -3.42288219311517    6.88201604165476   -0.29982864721288
C        -2.06967476517304    5.21907584004045   -0.04237768925570
C        -2.58178217041957    4.43336977118102   -1.09416597448448
H        -3.41390006350102    4.81897902155412   -1.66474504312178
C        -2.03300278334606    3.21534386050072   -1.38709896237451
H        -2.43253868129096    2.61865186132111   -2.19309908699112
C        -0.94098542573750    2.74396269219018   -0.64647115888009
H        -0.50275802333207    1.78951603842943   -0.89149553008703
C        -0.42410524164699    3.47974144228582    0.38809825242139
H         0.40696114133146    3.12957357017062    0.96910728438869
C        -0.98024963599898    4.72320142614478    0.72979119949251
C         0.96108013195197    6.62351745221978    5.11796809124914
H         0.91787005107792    5.99388002798905    6.00948423919337
H         0.93111184131943    7.67845009911415    5.42424557738603
C         2.22602125596883    6.31421417965055    4.36731533919314
C         3.49271340297544    6.64718643322537    4.86011209146367
H         3.57890347999956    7.09350117514921    5.83816935568263
C         4.59864826720198    6.34528468624754    4.10897907956735
H         5.59356028357807    6.52911920862033    4.48582113371666
C         4.43245232139202    5.80445360214034    2.82102826744339
C         5.50334014269618    5.53485567812570    1.94598693458864
H         6.50994551049635    5.73386854424685    2.28281756526645
C         5.26642994850137    5.03579743486322    0.69572295291794
H         6.08947832955580    4.82216431246481    0.03077754028994
C         3.95205015330382    4.80578628834432    0.25903992028701
H         3.78623148626891    4.43416628629195   -0.74019348392940
C         2.88969879787697    5.03859226773081    1.08918336111768
H         1.87164970054122    4.86730250230312    0.78725716194497
C         3.10963928674828    5.51112436028416    2.39416920540157
C         3.19829205880855    1.35885154578230    2.24341260781408
C         1.79684009101351    2.55096665592598    7.12374040999737

