81
CSD_code = FOXSER | q = 0 | S = 0 | Stoichiometry = C40H32N6NiS2 | MND = 6
Ni       -1.42468168210000   14.49130963488577   -1.02735265400296
S        -3.65473541417047   18.31491287330568   -1.08346382031093
S        -0.33420557584893   14.91844225376982    3.15337162343747
N        -3.06517127744333   12.94137592221451   -1.57502230776650
N        -1.29050380927795   14.31917739749096   -3.04312863617008
N         0.27675170337151   15.99762205952971   -0.78662227993425
N         0.03093837081512   13.32326977588450   -0.67787989199836
N        -2.74171406451728   15.72079955690130   -1.23147389994857
N        -1.74068767314893   14.47067719961533    0.82050067806490
C        -4.03749189687217   12.52955343211189   -0.77692841417610
H        -3.75244163694426   12.30896001767984    0.24371393630100
C        -5.35430802405423   12.39041661842738   -1.19207640757526
H        -6.11217361422336   12.05536033264478   -0.50168680777896
C        -5.66975605346244   12.69413516290996   -2.50650869975104
H        -6.68397955146049   12.60699805625958   -2.86691899804967
C        -4.66023966968992   13.12263478477403   -3.35206318863134
H        -4.87187146492987   13.38890314267994   -4.37636813581616
C        -3.36810085443570   13.23445387786416   -2.84680974588633
C        -2.25017743032263   13.74143526870278   -3.66486774709377
C        -2.34761586507814   13.51599218784472   -5.12229968327001
C        -2.66966331542474   12.23762412326503   -5.57826875047515
H        -2.82169785500432   11.44559410768320   -4.86128441462054
C        -2.77308445690011   11.97966668400480   -6.93168199670435
H        -3.01283474924598   10.98263191542746   -7.26996576811703
C        -2.58111255948178   12.99818871357492   -7.85123935132978
H        -2.66813054782574   12.79808882649890   -8.90858245810513
C        -2.28914526631257   14.27656118566030   -7.40743777568555
H        -2.15452082274057   15.07898685199041   -8.11724853795259
C        -2.16871503833038   14.53775239600721   -6.05373820016778
H        -1.96491871700171   15.54497252658402   -5.72377475877440
C        -0.13309261074394   14.81494102902479   -3.73694913995849
H        -0.07798244531802   14.41859417091456   -4.76299043205623
H         0.75090415498579   14.46706743862569   -3.19316150580911
C        -0.08085531379563   16.32701666912569   -3.77570702143621
C        -1.23465434790804   17.09865573704582   -3.79412811985756
H        -2.20597910917603   16.63030818424874   -3.73980358143699
C        -1.15277920302399   18.48054259169898   -3.83714095466237
H        -2.05938743836497   19.06597176578241   -3.82893581200539
C         0.08139534747159   19.10472112565017   -3.87067152969082
H         0.14431302067870   20.18219733971143   -3.89966072189679
C         1.23663551159906   18.34075880834374   -3.85924102630202
H         2.20459498119213   18.82016906712427   -3.88230841636148
C         1.15496555496904   16.96153446260202   -3.80938797370921
H         2.06088581768844   16.37055532287243   -3.79225699251327
C         0.29083232138497   17.31391679810599   -0.68146002288172
H        -0.54966078900726   17.83521548487122   -1.11835724925418
C         1.31127455034899   18.00981789389279   -0.04793461367847
H         1.27175087575379   19.08500217408507    0.02089464231332
C         2.36834873893961   17.29371809796868    0.48906449584507
H         3.18300622986387   17.79796769525197    0.98737939689918
C         2.35650858118943   15.91294784762236    0.39405117155982
H         3.14942819834729   15.32158102860630    0.82517008069539
C         1.28066234635198   15.29608661100130   -0.24233598407397
C         1.13735838014366   13.83439336043191   -0.27707995256537
C         2.27451831126457   13.04373805916863    0.26062450367528
C         2.24060341101699   12.60615208787047    1.58204795499093
H         1.38697922393402   12.84565047280720    2.19902437738108
C         3.30584380119966   11.89161867500478    2.09917940076556
H         3.27585138953319   11.55933436356487    3.12566415303575
C         4.40574675637716   11.60708211428019    1.30634299984182
H         5.23478025060486   11.04721172985861    1.71232098764391
C         4.44538212197059   12.04808880455413   -0.00549804371696
H         5.30448114623755   11.83506546150473   -0.62412629346499
C         3.38600591900754   12.76930620860675   -0.52760176529133
H         3.42467332069315   13.12501331707481   -1.54798384844400
C        -0.16925530917896   11.89428758738361   -0.62784114125699
H        -1.09795568243941   11.71633537574282   -0.07847487276920
H         0.65825423803501   11.39990940047240   -0.09713700769738
C        -0.28542504245909   11.28294609825756   -2.00235346847664
C         0.67092203371915   11.54826495661708   -2.97337058827917
H         1.48793943686838   12.21856908653905   -2.74877155920139
C         0.59749048412950   10.95021716868764   -4.21850726072097
H         1.34467927902922   11.17030820731158   -4.96700717875376
C        -0.42158206130776   10.05737401453104   -4.49895861218354
H        -0.47308667066866    9.58051506499375   -5.46634362218042
C        -1.37355807253036    9.77889567084953   -3.53210938188495
H        -2.16737342149192    9.07604495287630   -3.74187472189441
C        -1.31214216458743   10.39573061225722   -2.29504743253900
H        -2.06026637176180   10.17846128103900   -1.54707312883262
C        -3.07879407651176   16.84223431045460   -1.09882121842914
C        -1.12389679217004   14.70676732686202    1.79675512380792

