76
CSD_code = FOXVUJ | q = 0 | S = 0 | Stoichiometry = C38H34CuIP2 | MND = 3
Cu       -2.11081567740840    2.00219854091666    4.46742600202914
I        -2.11087047571716   -0.49168590526703    4.46742573115475
P        -2.60466045744893    3.16451821422044    6.30842829066596
C        -2.64891254350508    2.20571893354641    7.85511059737976
C        -1.46537119407129    1.57290544337479    8.25844385582090
C        -0.21573071577127    1.71388171305052    7.44955732187430
C        -1.48605910528822    0.80010248579615    9.40938802012739
C        -2.64726142816940    0.64726933872882   10.14701733174695
C        -3.81386773383026    1.27018904688957    9.73941707540348
C        -3.81655045926017    2.04381869072998    8.59375996735370
C        -4.33291818321411    3.69782098284048    6.11247460655345
C        -5.20626529497615    2.73872376316034    5.59988086176678
C        -6.52320912895420    3.06284985201226    5.34095709566516
C        -6.97438000603525    4.35281842577644    5.57565950015009
C        -6.10727339932577    5.31225009877142    6.07147027044473
C        -4.78757662833497    4.99210639716762    6.33889392932055
C        -1.75986713405942    4.69184387294141    6.84620474853450
C        -0.98329954425963    5.36581835516653    5.91056913856467
C        -0.31451889329997    6.52376174361500    6.26100611082841
C        -0.41578971711624    7.01113345519089    7.55343321531655
C        -1.18305847176859    6.33855369330688    8.49257184998467
C        -1.85308693104918    5.18000889796741    8.14613405181037
H        -0.58072392820256    0.30293224633280    9.72663140826827
H        -2.64255027010514    0.03679538610647   11.03766941626133
H        -4.72384869123378    1.15175929378705   10.30884978991415
H        -4.73100047297917    2.52330260501674    8.27249491913158
H        -0.34160607109363    1.21243548261791    6.48813477542487
H         0.01266507165904    2.76421108113425    7.25571078606175
H         0.63151044663485    1.26009254500187    7.95784006894954
H        -4.84139174602980    1.73532978413224    5.41610756536298
H        -7.19628038073445    2.31380888319570    4.95108258881440
H        -8.00233321642671    4.61081789510299    5.36846720268185
H        -6.45972363974323    6.31779056199198    6.25157904666241
H        -4.11236772825748    5.74630283950111    6.72008317581031
H        -0.89853335241911    4.97143711343029    4.90480955176284
H         0.28883169406902    7.03893741391212    5.52786975130704
H         0.10750219707844    7.91362135323908    7.83270558519621
H        -1.25697518856461    6.71892981169531    9.50099852633614
H        -2.44740939002864    4.64984741297903    8.87783669960180
P        -1.61692914468745    3.16450328143704    2.62642231360097
C        -1.57265272244896    2.20571385757834    1.07973504080383
C         0.11132300674826    3.69781151937189    2.82241250077703
C        -2.46171967121562    4.69182921732311    2.08864453851141
C        -2.75619724797476    1.57292702808564    0.67636679964446
C        -0.40499614429135    2.04378198640674    0.34112261696899
C         0.98466222603964    2.73871769008979    3.33502699231497
C         0.56598275118066    4.99209855498351    2.59600459091584
C        -3.23833802851023    5.36577220403015    3.02426030442594
C        -2.36844234708586    5.18002781190442    0.78873187580698
C        -4.00585882029006    1.71394187471367    1.48521432683362
C        -2.73549280080602    0.80012205545141   -0.47457523647885
C        -0.40766477873323    1.27015702598210   -0.80453732268297
H         0.50945587450927    2.52324418959951    0.66241534371990
C         2.30159789557620    3.06284948444174    3.59398520310088
H         0.61978613210603    1.73532418851686    3.51879731570226
C         1.88567046775480    5.31224869732501    2.86346449133895
H        -0.10921715605611    5.74629143981980    2.21479301456264
C        -3.90711134289887    6.52371941355373    2.67382151446441
H        -3.32314820831801    4.97136464375729    4.03000598618820
C        -3.03846298602500    6.33857643356000    0.44229232464890
H        -1.77408296150834    4.64988782732421    0.05704347072417
H        -3.87998589117619    1.21262343822588    2.44670476812682
H        -4.23430143689982    2.76428566011601    1.67892530012604
H        -4.85306955159547    1.26005442726931    0.97696933717195
C        -1.57427333022017    0.64726456828121   -1.21217204040894
H        -3.64083013118338    0.30297295325380   -0.79184531716581
H         0.50233102816771    1.15170298829235   -1.37394168928335
C         2.75276840245478    4.35282122800697    3.35929868993882
H         2.97466127824682    2.31381415113279    3.98388355902208
H         2.23812221790532    6.31778909744529    2.68335991808201
C        -3.80578131028407    7.01112595476165    1.38141232990512
H        -4.51050015246025    7.03887161573383    3.40694281741872
H        -2.96450467525697    6.71897752526275   -0.56612182129550
H        -1.57897124760542    0.03678533703352   -2.10282071138737
H         3.78071498459201    4.61082552802350    3.56651805562263
H        -4.32906638850771    7.91361735282870    1.10213836818801

