69
CSD_code = FOXXEV | q = 0 | S = 0 | Stoichiometry = C19H36FeO7Si6 | MND = 7
Fe        6.75481719114843    3.35366438805087    3.34558220743151
Si        6.48075842899540    6.64046521135319    1.72534537990521
Si        4.24136972090506    4.34739589854081    0.83797249688491
Si        3.82263038369478    1.24214371005359    1.09193467914308
Si        6.81391625982058    0.96936007879881    0.47472214717933
Si        9.98029599277552    3.69798792654672    1.64367326443782
Si        9.67905504314658    6.77567802478171    1.91720542228956
O         8.06377900139966    6.69689286159944    2.10521685785012
O         3.92819085358142    2.84276696055525    1.38898973618596
O         5.19483155897086    0.75965994025852    0.35412360889853
O        10.22250616694331    5.30583933517133    1.46952564764431
O         7.60507943333934    0.98150056053226    4.75336868379472
O         8.04505848049751    5.19061490939643    5.22182764851603
O         4.09478624970340    3.08832402397046    4.50458591943591
C         6.92861705482181    3.87677535467809    1.33025905620796
C         8.15784807028819    3.42077431340686    1.89475406758163
C         7.09486893541386    2.47329791677742    1.53025895687638
C         5.96992915311224    4.84020201747717    1.44514304535483
C         5.56442314574318    7.36984795331613    3.22410885974099
C         6.17061270495634    7.64855851225778    0.13731526892685
C         2.88661591805302    5.46509632239844    1.55839505438034
C         4.22929064334847    4.35184347709903   -1.06961399571286
C         2.41907954089366    0.90634629224376   -0.13799379720716
C         3.65792504659751    0.36445900766123    2.76071940729169
C         7.42504259649493    1.26339268397007   -1.30688533147126
C         7.58760166295451   -0.56955201225249    1.27509783616056
C        10.60925999689998    2.89944910118302    0.03553593212845
C        10.89787848543781    3.07192478870747    3.18554468378580
C        10.40756835921871    7.26211693639283    3.59746554743984
C        10.11376563604767    7.95260851434593    0.49449922401776
C         7.28885730005873    1.93662571919792    4.19658185528239
C         7.50640949741134    4.54676359143827    4.43913110210568
C         5.11061091899272    3.13559551484971    3.97178485889543
H         4.52584823664094    7.57743601334858    2.99422867460189
H         5.58409093905261    6.67989653352761    4.06293538331227
H         6.02417478409935    8.29780745466498    3.54931440141341
H         5.11793422694304    7.65770235497692   -0.12496947516018
H         6.48906690940848    8.67821960184033    0.26631761474526
H         6.71958809086330    7.24061806090370   -0.70587328492880
H         3.01417252350396    6.49273524334683    1.23747966875735
H         1.90307804561015    5.13714764581888    1.23801636767280
H         2.89908144526231    5.44920961333370    2.64285916902326
H         4.61590271904528    5.27922221759574   -1.47904654293839
H         4.83646192835035    3.53623154195598   -1.45109534086714
H         3.22216636478113    4.21681233326425   -1.45256482314644
H         2.31101395448069   -0.15497506565337   -0.33305887905450
H         1.47296413409760    1.26985213002581    0.24846168872312
H         2.60142281851166    1.39955892688727   -1.08738914008358
H         3.46233214999883   -0.69418024058119    2.62523486595636
H         4.57647300679312    0.46148889933246    3.33269225225039
H         2.85222750324913    0.77745024925873    3.35708085667145
H         8.49855649581715    1.13030916361578   -1.38032785562858
H         6.95542416839997    0.56744067672764   -1.99559805440414
H         7.19387385702001    2.26912935842452   -1.64558970345420
H         8.66861558441792   -0.48603432425676    1.31600658163098
H         7.23013670678327   -0.70417726507647    2.29098968231179
H         7.34546190116744   -1.47007895800740    0.71970728120682
H        10.52503932466968    1.81926997727140    0.08819385307305
H        10.04430132979826    3.23769504439915   -0.82699782965683
H        11.65251438619104    3.14411203778599   -0.13774172656970
H        10.75758986334394    2.00429892872720    3.31829709633835
H        11.96502295902137    3.26165366985810    3.12604730343569
H        10.52427259949959    3.56302555323005    4.07889557237317
H        11.48642952438134    7.14497475749621    3.60532699395671
H        10.18520965642444    8.29525470855604    3.84383575432466
H        10.00125573293134    6.64221006471248    4.39028729558872
H        11.18714650830319    8.03038627843463    0.35907599350333
H         9.68773409826454    7.61013004126089   -0.44329355981402
H         9.73183609120596    8.94974693824400    0.68648653345906

