79
CSD_code = FOYCUS | q = 0 | S = 0 | Stoichiometry = C40H32Cl2O2P2Pd | MND = 4
C         9.24088722263485   17.96602051606245    3.66317505690683
C         9.40205421132871   16.95828098059984    2.69956399485805
C         8.68793580087859   17.01076380154839    1.50470717952636
H         8.82035255154179   16.22646531257536    0.77472619375414
C         7.80135800512452   18.04258744696675    1.23342993959084
H         7.25987217428728   18.06867488012220    0.30020292621663
C         7.62810077593580   19.02734319437052    2.17827503876106
C         6.77616619284006   20.26147814356978    2.18626937468329
H         5.72129860344894   20.03312191325986    2.03145297776087
H         7.09271745925245   20.95834788491089    1.40787289236100
C         7.04427317397007   20.81762242412145    3.59845006987575
H         7.40487623546233   21.84932084591774    3.58363427426544
H         6.15165816883527   20.76851291259893    4.23133625128783
C         8.32833521959666   18.97381888297536    3.38071181467837
C         9.90004145385533   17.97842358279215    4.98386512915148
C        11.26133560386756   18.24792393732300    5.18776758258133
C        11.78553758820879   18.28218735327171    6.47731290717450
H        12.83601698436308   18.48861676538481    6.61665431102038
C        10.98524001073172   18.06634891051132    7.58964766290281
H        11.40790798709355   18.09316507757901    8.58233169682890
C         9.64502739765921   17.82064180525849    7.39948627815822
C         8.53753395087286   17.53670918668716    8.37009129932329
H         8.42294138317379   18.33297463715783    9.10601485675565
H         8.71747061871648   16.60175432034543    8.90411431782906
C         7.31742195889589   17.43827380328088    7.43332405843264
H         6.78135587571847   16.49114554740163    7.53651390157319
H         6.61063038334209   18.25856275785979    7.59802302840422
C         9.11358041493243   17.79270197206535    6.11255000153869
C        10.16847734089555   14.33992902430624    1.82960293627876
C        10.50226478574301   14.48000716045071    0.48219423994565
H        11.05846741891876   15.35798178943032    0.16386479434492
C        10.16431108476540   13.49195926565892   -0.42073787284054
H        10.42874175844211   13.59761450375315   -1.46235417126859
C         9.50384742845851   12.35368617768548    0.01730321689690
H         9.24949917025084   11.57435506645915   -0.68588160287381
C         9.18791915699568   12.20505830133556    1.35649485406291
H         8.68903250780377   11.30974630596837    1.69813088471367
C         9.51969381638899   13.19422151150559    2.26773779990830
H         9.28859981998496   13.06521187059035    3.31542053279407
C        10.48851124477172   15.08191211653225    4.61468751234657
C        11.65667000181122   14.87656860539997    5.34398092932378
H        12.62424014134332   15.07109711387229    4.86468504319968
C        11.58627455420496   14.42777750143766    6.64975490374091
H        12.48967826336772   14.27145687783246    7.22017197759128
C        10.35074139327995   14.17593198130938    7.22451905880405
H        10.29458568450465   13.82282859145873    8.24404261641439
C         9.18706329170213   14.37140600189952    6.49701377034132
H         8.22724905108814   14.16587016479722    6.94915004998903
C         9.24917661128987   14.82851814135555    5.19349430015459
H         8.34522489655571   15.00986081289660    4.62813339249971
C        11.53942559306234   19.58754012354684    2.66332977240966
C        10.93990156376834   20.75026075464806    3.13696810024906
H        10.94913273122897   20.96677779319963    4.19649907499304
C        10.31594617451516   21.60568954084331    2.24782190963483
H         9.85914084689383   22.51616623140914    2.60887586810096
C        10.27519157365913   21.29901990773730    0.89660549110139
H         9.78270443757233   21.97019476262130    0.20772137760810
C        10.86599309938529   20.13785778522547    0.42396763059920
H        10.83057041018942   19.90378491892545   -0.62953004623633
C        11.50283781717170   19.28359331641974    1.30485630928262
H        11.98564322717765   18.36470099451286    0.94932974919776
C        13.83579077583041   19.19991379784682    4.42403708247266
C        14.75324478584917   18.34837283076017    5.04057742029961
H        14.55072248560564   17.27872527376292    5.05757004919003
C        15.91683068343873   18.85791993209440    5.57942209990184
H        16.63113400593787   18.19816487236740    6.04918736029637
C        16.17608330981255   20.21843540369177    5.49576462482064
H        17.09209202059534   20.61758019610912    5.90579414727933
C        15.27471737728126   21.06166587307397    4.87034212178495
H        15.48841819600301   22.11769875465906    4.79131241519603
C        14.10197656521652   20.55766049203515    4.33097581704553
H        13.40980986519175   21.21539744270662    3.82509282130015
Cl       13.37072346196556   14.50656743794521    1.68983725427206
Cl       14.79025948523877   17.37063693056509    2.06114499902575
O         8.05519980969004   20.01218457882158    4.20674218050867
O         7.78504305111068   17.52873617195936    6.08657660083493
P        10.69496152055459   15.69014021034505    2.92038656569895
P        12.36424555315189   18.38906223678163    3.74202112976917
Pd       12.77386274361245   16.48506375300034    2.62515589073611

