53
CSD_code = FOYCEB | q = 0 | S = 0 | Stoichiometry = C18H29BN4Ru | MND = 8
Ru       -0.21512710410527    3.27597380380099    2.19555787313717
H         0.01978666415775    2.99898077392571    0.72703050983466
B        -1.64314915597054    5.00837391154438    3.54037871150454
H        -0.88338447247588    4.07024219994962    3.81360294410158
H        -2.09202532050003    5.56147211472209    4.48488355659031
N        -2.22066180243951    3.50516822827670    1.74656689700327
N        -2.71186122177110    4.39913499207632    2.61362054328868
C        -4.01176837065180    4.62306260806596    2.36056059782508
C        -4.36230935615484    3.82220612426314    1.28674202207079
C        -3.19703090030503    3.13649595125135    0.92291713472750
C        -4.84069752554657    5.58265944604483    3.13600830214152
C        -3.00792840401882    2.15903168807751   -0.18241792196589
N        -0.05387168235129    5.28563592773571    1.74540831678266
N        -0.82687919331011    5.93641815903262    2.62268368789622
C        -0.76972665952361    7.25905595813428    2.39824509180938
C         0.09230581328970    7.45502348308704    1.33281215242370
C         0.51934181848822    6.17850942066163    0.94517303594740
C        -1.52688635131989    8.24897305842384    3.20772176579296
C         1.44840173926805    5.80461069055911   -0.15438672592070
H        -5.32532353361496    3.74464161994782    0.82403715425051
H        -4.50566806928149    5.62516400173809    4.16932962267340
H        -5.88524908545409    5.28222045144510    3.10646512038789
H        -4.76159028865934    6.58363217265882    2.70974631929552
H        -3.53102134030892    2.49715028642275   -1.07454468217674
H        -1.94619624455312    2.06061607840653   -0.39890666832249
H        -3.40717093325711    1.18323369728129    0.09536730913866
H         0.37358144761581    8.38919332031190    0.89039606469553
H        -1.25353383598853    9.25752321782854    2.90947783120955
H        -2.59900441650904    8.11723202975644    3.06631873260888
H        -1.31167949188715    8.11896938558238    4.26717091205292
H         1.22394440203216    6.38079697793342   -1.04959692375129
H         1.34194509505099    4.74318167364101   -0.36837066947827
H         2.48056478490458    6.00872278229859    0.13131113339390
C        -0.29402997322025    1.10451440159967    2.16299218679794
C        -0.55720928908155    1.55802440977305    3.45748265188373
C         0.45016247627972    1.41876311744046    4.58476394131150
C         1.38686202983356    2.63745242278149    4.71154406185760
C         1.54411778163393    3.41232381381049    3.41870774338922
C         1.92767426297851    2.81861932538107    2.21434133139507
C         2.25024397476192    1.33711686652668    2.11600663573019
C         1.02390667173187    0.47805104670796    1.75345053182693
H        -1.13996247890274    0.71889220434210    1.59002044155776
H        -1.60170025209851    1.52623511811597    3.78491549296713
H         1.03512060446578    0.50983041566304    4.42359694797353
H        -0.08669420360401    1.29021351186985    5.52786717407194
H         0.98927555492220    3.31591573985815    5.47145834425486
H         2.37608384379788    2.31460380382175    5.06034105263274
H         1.84530728076808    4.45432101958668    3.57920179343463
H         2.48765326796245    3.44086893156893    1.51538283574354
H         3.01607986195118    1.19191173767720    1.35181147796337
H         2.67823189268575    1.00569966928552    3.06527505726732
H         1.00095721266435    0.33884387703563    0.67101705177505
H         1.11049247557270   -0.51560766769988    2.20931349525339

