55
CSD_code = FOYDUS | q = -1 | S = 0 | Stoichiometry = C26H24AuP2S2(1-) | MND = 2
Au        0.00029519997471   -0.00007648345210    0.00033513700200
S         1.31137909457990    2.93640089364471    1.61628698683042
P        -0.50622016599129    2.66930618812341    0.98477385281548
C        -0.71996000860512    1.82997320037104   -0.56554188308598
C        -2.47358427668232    0.88493877501127    2.01245106052703
C        -3.24603916672882    0.38745031727309    3.04712202892724
C        -3.12950619687630    0.91468055816761    4.32279412760062
C        -2.23958469762041    1.94832925003114    4.56767074746988
C        -1.46724857224219    2.44739280126725    3.53636041243158
C        -1.57734373179995    1.91519091664100    2.25724435639121
C        -2.74940258568918    4.36125634862128    0.78894114722790
C        -3.37564313365486    5.57456809142281    0.57941773523967
C        -2.62279080757931    6.72507116386755    0.40042263403926
C        -1.23980385233873    6.65874401352908    0.43148314897649
C        -0.61134442054114    5.44586648614467    0.64592360839622
C        -1.36106600657801    4.29285023633000    0.83221368428097
H        -1.76106290292301    1.90293010972062   -0.88485365941112
H        -0.08203310610094    2.35410208900116   -1.28322308276923
H        -2.55965856343669    0.46823241044018    1.01886549883153
H        -3.94101378833059   -0.41835529571333    2.85540708843936
H        -3.73212396697371    0.51759744101317    5.12861364568435
H        -2.14706964978992    2.36082545475418    5.56330202266734
H        -0.75656697689528    3.24696895607404    3.70630145269960
H        -3.33199012781792    3.45887182480391    0.92481101899830
H        -4.45608158460067    5.62660209204106    0.55306301914863
H        -3.11702029976174    7.67323867964874    0.23627055734460
H        -0.65146972812728    7.55547064883649    0.29007177884324
H         0.46789560400357    5.37294513792928    0.68676235784717
C         0.72068382024415   -1.83023158737472    0.56573936291446
P         0.50654996370928   -2.66947541183755   -0.98457848214070
H         1.76188539097262   -1.90316870352298    0.88475741604435
H         0.08298948375534   -2.35445229916413    1.28356610208057
S        -1.31122858109643   -2.93671729372108   -1.61559884146729
C         1.57727568904044   -1.91521035742290   -2.25729545843482
C         1.36142524202440   -4.29302330888002   -0.83217110765052
C         2.47380989258711   -0.88520251434644   -2.01251328272939
C         1.46647769512619   -2.44686266787520   -3.53657366834296
C         2.74980041591938   -4.36178883906602   -0.79054619759364
C         0.61159972578527   -5.44571068916536   -0.64410123972788
C         3.24582737369503   -0.38738827667962   -3.04734995506177
H         2.56044017440375   -0.46892340093828   -1.01879821312205
C         2.23838792125180   -1.94747743595854   -4.56805350670366
H         0.75558171841287   -3.24624542578860   -3.70651230077605
C         3.37593558241003   -5.57516735534887   -0.58101265310942
H         3.33252678842273   -3.45965904427833   -0.92782800633247
C         1.23995774304261   -6.65862090270849   -0.42959180997898
H        -0.46765960462666   -5.37252597109965   -0.68374254422583
C         3.12857421706682   -0.91405575995699   -4.32318944313621
H         3.94101022645409    0.41823989461039   -2.85563992567180
H         2.14531338197312   -2.35953110052765   -5.56381592815022
C         2.62296992638884   -6.72533626563076   -0.40026545602276
H         4.45641012903517   -5.62751052858641   -0.55603281188213
H         0.65154690627018   -7.55506824540155   -0.28687172079374
H         3.73084757755784   -0.51671504281833   -5.12913970247528
H         3.11711961930180   -7.67354377205594   -0.23613110889816

