47
CSD_code = FOYHIK | q = 0 | S = 0 | Stoichiometry = C18H24FeO4 | MND = 8
Fe        0.11388200112955   -0.55767108323731    3.32483308016146
O         2.80750005215566   -0.73195666868608    2.31508379927710
O         1.17253862019950   -1.54498028391240    5.81897906242396
O         1.66479605147339   -3.33958574582022    3.58713308036658
O        -0.35070851749441   -4.01480956977727    0.03184550680048
C         1.72114349407718   -0.68483565202659    2.68034686783437
C         0.74660248013716   -1.21414947335149    4.80897804285689
C        -1.08272062261234    0.78073874719343    1.92692991098174
C        -2.02686699270567    0.13649945588025    2.75653395942127
C        -1.75163921230755    0.48810546940673    4.09233895769780
C        -0.65665470471074    1.39526037440834    4.09003720538483
C        -0.25277411419085    1.58135651783257    2.75199099475803
C        -0.31869996216171   -2.41353521059782    2.66815855549491
C         0.80429671620076   -3.41488088481970    2.46246780542453
C         0.31670627966012   -4.86363594982530    2.18190059606744
C        -0.22704732915093   -4.96096941915031    0.76910420435847
C        -0.61899215010377   -6.36133745513232    0.35874430724561
C        -1.64210877115021   -6.91970386550492    1.34865360618261
C        -1.08556698496141   -6.86413357639446    2.76483395322135
C        -0.72595590147211   -5.43165206095011    3.16801664450329
C        -0.21316041691694   -5.40478713643319    4.60501245353384
C         2.99107304269313   -3.77474356195637    3.38400389904855
C         3.83085605636537   -3.32259366120702    4.56833215937925
H        -1.09388989632774    0.78916007111993    0.84997034280909
H        -2.85183062000377   -0.46970693224259    2.42011984729900
H        -2.35726928860811    0.24025271270343    4.94849866830193
H        -0.29631114010030    1.94627657952416    4.94337231330881
H         0.48478915702029    2.28698887191247    2.40589389764489
H        -0.81677020580634   -2.28313146222569    1.70493498917781
H        -1.03443552600251   -2.80666299484986    3.39397218450754
H         1.37426749175407   -3.11350258194431    1.56761677454273
H         1.19608839966205   -5.51780460401550    2.22932379679148
H         0.27332764921527   -6.99127274065855    0.36281121889392
H        -1.02592969451768   -6.33816258334285   -0.65329184602081
H        -1.89003818825430   -7.94793450306115    1.07785070780866
H        -2.55814894599167   -6.32769429973248    1.29033383469369
H        -0.19673924182189   -7.49653730640668    2.83410123950313
H        -1.82611855096048   -7.25628985027257    3.46508206898495
H        -1.63342466059914   -4.82310193731379    3.10168801452830
H         0.65793725349897   -6.04893209426466    4.70645267672454
H         0.07387282551823   -4.39938480166855    4.89540258411840
H        -0.98549647941413   -5.76318325648735    5.28278630892379
H         3.38664172735857   -3.34760217315987    2.45011367500878
H         3.03130159210663   -4.87244012401137    3.29976014377458
H         3.83844956766783   -2.23771213063382    4.62138486727675
H         3.40394520399371   -3.70938171656045    5.48920365762722
H         4.84978245644794   -3.68463944834798    4.46215938136049

