52
CSD_code = FOYJIN | q = 0 | S = 0 | Stoichiometry = C21H22N2O6Ti | MND = 6
Ti        3.86372158398668    3.43215171173267    2.81044742828428
O         5.45980010732530    4.41835536655376    3.26220494025729
O         2.19048052684072    2.81504433641362    2.79893222941637
O         0.16253156298303    1.46961068490234    1.84886297180165
O         3.10373084881354    5.26729794925961    2.76451004284776
O         4.25773785789362    3.66815678814720    0.95305545695440
O         4.69099818306718    1.92456293532238    2.90469464890678
N         4.76678676120244    4.13711022546991    5.41767758433194
N         3.71079386035446    3.51847563199752    4.82178874973657
C         5.62714374119362    4.57002660493174    4.52712239322541
C         6.83970958846554    5.25497932830068    5.01714473978341
C         7.75675673481543    5.75469194120209    4.09451771346144
H         7.55185889590512    5.62377509193676    3.04117339414437
C         8.89846451441312    6.40119570238040    4.52872547945457
H         9.60761706427307    6.78693115567634    3.81060094585110
C         9.13439262378532    6.55439239832470    5.88562486004035
H        10.02758656667043    7.05882290573126    6.22459023384582
C         8.22459009622224    6.05987330320171    6.80809234967755
H         8.41214778527646    6.18108355603992    7.86501613555903
C         7.08127651685242    5.41222609111309    6.38038229079981
H         6.36110215237920    5.01922214207904    7.07950751935600
C         2.85460044064641    2.91388519996688    5.57239548340073
H         3.00510487237027    2.93088631730068    6.65543110883389
C         1.72084948733456    2.20701622785832    5.05732105403397
C         1.45895462085650    2.18029944309316    3.66288549132197
C         0.32569620016028    1.44262441961562    3.20492909021470
C        -0.49007421404661    0.78132846605662    4.09768212464280
H        -1.34639190536952    0.22221621106697    3.75428461427814
C        -0.22036583509748    0.82776782250434    5.46770427290659
H        -0.87378217567678    0.30534432334860    6.14932226800915
C         0.86097132754005    1.52575478352962    5.93813116635727
H         1.07120663251220    1.55794336429868    6.99688390439541
C        -0.90962019287864    0.75087539427501    1.29632221989774
H        -0.83592183568792   -0.31920141067851    1.51920686759518
H        -0.84139191893003    0.89884940645731    0.21958238114130
H        -1.87493837659766    1.12820585852822    1.65192336367439
C         3.02019681191045    7.61111096213219    2.35723427872806
H         2.30796062667196    7.99770383000281    1.63088743873192
H         3.89175705655234    8.26152008990793    2.36013593682896
H         2.56343719268174    7.60826345543835    3.34414760659593
C         3.42489871463358    6.20069650517923    1.98428430310456
C         4.11080197898027    6.01103613210309    0.77500388240911
H         4.33902660050069    6.87081474211724    0.16437149249965
C         4.47083031952238    4.74276710403555    0.32075731851756
C         5.15427663331782    4.62966939857485   -1.02649118063638
H         6.17729190111000    4.99259131086553   -0.94190354817646
H         4.64017612730706    5.22833811128752   -1.77376041759656
H         5.17452358783357    3.58754750479114   -1.33737812602678
C         5.90500272847580    1.42746770274695    2.48105270150328
H         5.99730659319393    1.52681210793149    1.38614751515269
H         5.99656543094323    0.36339544937355    2.74994660905905
H         6.73422299650897    1.98238391557123    2.95428667086640

