80
CSD_code = FOYJUY | q = 0 | S = 0 | Stoichiometry = C20H50ClNbO2P4Si2 | MND = 7
Nb        4.12153741208793    2.34051467653216    0.00009379528774
Cl        4.12086279605863    4.77141050678937   -0.00090754427760
P         5.50183734240720    3.03344526311196    2.01001885983078
P         6.41398443673551    2.52164666918580   -0.99349875712137
Si        4.35417338915531   -1.67216930087560    2.26666776129381
O         5.09340831918153   -0.63516731727783    1.26040068459932
C         4.52231798667523    0.38564009962550    0.52542810182084
C         2.91914666099373   -2.65466733293316    1.47363540356591
C         5.76250520626523   -2.82815249345451    2.81218385884280
C         3.65714954396887   -0.70877850631440    3.77338633630013
C         5.03241713091902    4.31480666525034    3.24645735463824
C         6.24635030880222    1.78876345459466    3.13194552571937
C         7.04963689096740    3.83284857206196    1.36067318831749
C         6.81104410578560    3.83324175356628   -2.22146922716637
C         7.23369871887400    1.06815161397724   -1.74390208837365
C         7.67551461052085    2.92154886347984    0.31836658446479
H         2.18478425109980   -2.97847230998861    2.20518932941932
H         2.40873321356776   -2.04751482862880    0.73194129480827
H         3.28227714977178   -3.54168323066654    0.96319794784231
H         5.39153736300800   -3.54277228577147    3.53834833779630
H         6.57975063996011   -2.28316863920023    3.27340670667367
H         6.16967788209416   -3.38804293700214    1.97694872110239
H         2.72591263935170   -1.12796735823763    4.14165336314389
H         3.47104198436048    0.32555530787684    3.49029156693235
H         4.35683228218148   -0.70408077392476    4.60449803745863
H         4.62817210421012    5.18120210588761    2.72663884707549
H         5.90191158372089    4.60957256891421    3.83497250843157
H         4.26936454916964    3.90536900983815    3.90803588620637
H         6.53528426482733    0.91552599464123    2.55273582838557
H         5.49202965083174    1.48036181389292    3.85173501210702
H         7.10753061248297    2.20095632446835    3.65918579991734
H         7.73768500959908    4.02783745312991    2.19103752442794
H         6.76157076284545    4.78811797862051    0.91113619143501
H         8.56646314732055    3.37234080568667   -0.13252340339988
H         7.95435201116399    1.96971415170088    0.78255068721540
H         7.88333991907448    3.88503899919956   -2.41379263041378
H         6.28078013165117    3.61136036724907   -3.14707322676756
H         6.45448880835781    4.78875398197575   -1.83752911394189
H         6.80882710619418    0.87921028688036   -2.72699899352164
H         7.03676248848593    0.20661918928891   -1.10818443959932
H         8.30786446239837    1.23733011493095   -1.83060529209697
P         2.74140351919403    3.03363262736128   -2.00988789612399
P         1.82942279529470    2.52173044606248    0.99353231916207
C         3.72052766494632    0.38574288691729   -0.52555302022367
C         3.21015547252412    4.31538980695941   -3.24619088774750
C         1.99714690394532    1.78910557476777   -3.13216600155923
C         1.19329468867511    3.83247167579204   -1.36054750418209
C         1.43194181216498    3.83376837612682    2.22090990765699
C         1.00991752862921    1.06847032636029    1.74466143501496
C         0.56769530789331    2.92083969976998   -0.31836147312261
O         3.14928736278957   -0.63495477242235   -1.26057935390729
H         3.61357685916771    5.18208329274679   -2.72624071392111
H         2.34063623335345    4.60950525133954   -3.83501261770967
H         3.97374415731741    3.90659062166981   -3.90753653802213
H         1.70768298232925    0.91599360626984   -2.55311569988363
H         2.75173504454174    1.48040642116989   -3.85149823659624
H         1.13638583985837    2.20143192864727   -3.65993490009087
H         0.50516063618895    4.02741145294432   -2.19085893797816
H         1.48111005936006    4.78775749106786   -0.91085871722478
H         0.35963121503404    3.88551893080013    2.41313666387270
H         1.96219117968780    3.61244155359618    3.14664513809744
H         1.78839704467608    4.78914350410513    1.83656522201763
H         1.43412591624818    0.88071263290316    2.72827041113258
H         1.20789397856894    0.20645465535045    1.10993577805537
H        -0.06443403398475    1.23700571901967    1.83040671537637
H        -0.32356569433396    3.37115016513783    0.13238069081411
H         0.28942302727984    1.96886377105862   -0.78256797672213
Si        3.88858898580220   -1.67202707054409   -2.26674480210768
C         5.32329285412548   -2.65476014401336   -1.47343494955107
C         2.48014055548889   -2.82769255077625   -2.81262704921949
C         4.58615567108827   -0.70871780696370   -3.77326316511502
H         6.05766832399128   -2.97882077666657   -2.20485524913544
H         5.83375052851476   -2.04759568062650   -0.73179337843166
H         4.95993738578030   -3.54162247305783   -0.96290612514593
H         2.85112443621406   -3.54236358089521   -3.53873068247214
H         1.66311346261792   -2.28252182403884   -3.27401488160711
H         2.07266063182788   -3.38752388343403   -1.97750121492758
H         5.51745281927218   -1.12803708936301   -4.14122915522427
H         4.77232526146550    0.32559134606383   -3.49010723542371
H         3.88674270531043   -0.70392338929926   -4.60460224618129

