56
CSD_code = FOYJOU | q = 0 | S = 0 | Stoichiometry = C18H31ClNiO3P2 | MND = 4
Ni       12.35523196186813    2.73924929568226    3.63497262037273
Cl       14.23041633832768    2.47315835017655    4.53755037194317
P        11.29413952798843    1.32081666622696    4.82004115008871
P        12.95133293859295    4.22213919260344    2.22434732404556
O         9.73318094326769    1.37997730005050    4.31685867794195
O         6.95637806231376    3.43554331557856    1.04498298198095
H         6.99599136670876    4.07984687270869    0.32805816717888
O        11.61498492111335    4.57005210718543    1.33485855523218
C        10.67556070483284    2.97300301858836    2.82609786441180
C         9.56063226371243    2.25605880678288    3.26096891894123
C         8.32103086752940    2.40871245993420    2.66758755932498
H         7.46621367817443    1.84853459899393    3.00700669522802
C         8.18610953692559    3.30533436594092    1.61129813950010
C         9.27720471045965    4.03886911917515    1.15632414373708
H         9.17654594583087    4.73710541865348    0.33779318190074
C        10.50744287678240    3.86263264592796    1.76779563555463
C        11.04879017007584    1.42499058586162    6.64673256705943
H        10.18094685778403    0.80312712306063    6.89548177012041
C        12.29646937434086    0.95451871556441    7.38198331159202
H        12.21527214214999    1.18308330762041    8.44336352223634
H        13.17480908178587    1.46234175634960    6.98605700926467
H        12.44093238048155   -0.11806581522436    7.27459694333328
C        10.74101983224897    2.88674856025094    6.96078964135120
H        10.52801229167444    3.02193144570183    8.01959368537026
H         9.88032832071795    3.23029077153269    6.38704913910132
H        11.60172173269657    3.50400115760008    6.69986725249026
C        11.76043300817034   -0.43250200354064    4.44191667660982
H        12.73381629549799   -0.60076915314257    4.91309399516207
C        10.73572526753632   -1.43581223657382    4.95085518951094
H        10.99321084046459   -2.43672627648349    4.60785664652181
H         9.74628572795794   -1.18649040731540    4.57265423005149
H        10.69850447442099   -1.44752039053655    6.03765087990974
C        11.92922446391584   -0.50042806914496    2.92517716462941
H        12.34965379105902   -1.45570630812934    2.61662574629269
H        12.60332128938279    0.29940960676692    2.59448685528807
H        10.96817315913687   -0.36613610348403    2.42891821006306
C        14.18288078347358    3.97844032234755    0.87013342208353
H        13.99881960888365    4.75271071098044    0.11606338396683
C        15.60146253594919    4.06457030466695    1.41676041820616
H        16.31570723438311    3.74492810312512    0.65971726095169
H        15.70510045122698    3.41511404806127    2.28488866190281
H        15.85204213933985    5.08022863123625    1.71423531954284
C        13.90465424511928    2.60185895369063    0.27203258368576
H        14.56211265156158    2.40295864677985   -0.57234918414758
H        12.87165755243394    2.53180933231290   -0.06847405940831
H        14.07317503042114    1.83513374427172    1.02932856422523
C        13.33889028732688    5.85685618999159    3.00678195144115
H        14.32551634737163    5.74892197934955    3.46803850984495
C        12.29951923345162    6.04907046694628    4.10971976709999
H        12.53660427060176    6.91119531496693    4.73024507130707
H        12.27285676941312    5.15753919096679    4.74834501794608
H        11.30850749612753    6.19167400674527    3.67906538224884
C        13.33594562192682    7.00496053529716    2.00788381262392
H        13.46226291611077    7.95228026551912    2.52981752239199
H        12.39047583812322    7.03229124712481    1.46966071446455
H        14.14286184082850    6.90393820467740    1.28581345628181

