71
CSD_code = FOYPIU | q = 0 | S = 0 | Stoichiometry = C33H34AuClN2 | MND = 2
Au        8.45549179259555    4.96994349393387    2.22815645855361
Cl       10.57968422108731    5.36812567826878    2.87170042934811
C         6.52066527228112    4.67230612975021    1.61253266868892
N         6.12083510049380    3.68806135748094    0.81498157452510
N         5.61442209584288    5.54228818262043    2.04286322031815
H         4.63387389800131    5.46176996992537    1.79504556888814
C         4.73753714554873    3.50573621899327    0.35448191419976
H         4.79030423289169    2.75732731955194   -0.44501281644591
C         3.86209380147729    2.93010398747807    1.47480959483532
H         2.93420903242578    2.54104934908650    1.06253858967706
H         4.38462714631014    2.11175764930159    1.96242401209237
H         3.62387424305078    3.66904469210141    2.23623159066169
C         7.09767233678649    2.70379861192985    0.33606627830243
H         8.04450669238724    2.98670296053877    0.81358677874303
C         6.76557509738632    1.28607009370507    0.79468284031240
H         6.76196300676864    1.24865161156181    1.88185247637235
H         5.80381106170441    0.93577918997679    0.42961895900415
H         7.53689971142412    0.61126521390614    0.43256725563291
C         4.18372654743124    4.76121901698881   -0.29858082389396
C         5.00036893750434    5.48944440784563   -1.15991026770232
H         6.02046928646860    5.17491719007779   -1.32144479059617
C         4.51872192164446    6.60342062342820   -1.82158043109237
H         5.16972848047215    7.14875792255863   -2.48869750487573
C         3.20769797150001    7.01041579967412   -1.63884203684265
H         2.82966671665036    7.88097724040513   -2.15280375860895
C         2.38559257582030    6.29122105593817   -0.78934307611175
H         1.36129602565851    6.59847516068169   -0.63938256239729
C         2.86754079087270    5.17574207968271   -0.12444145117366
H         2.20064778573996    4.63176673800518    0.52640835320192
C         7.28597639471531    2.85369100974802   -1.15872872766338
C         8.10155622778396    3.88857114329644   -1.61039115860749
H         8.60010045730284    4.51963183447222   -0.88668470892500
C         8.28451312481516    4.10716965779960   -2.96313429504281
H         8.92370345303168    4.91159457387904   -3.29493490305508
C         7.65217666609425    3.29252997820285   -3.88811267033021
H         7.79303869629827    3.46015169975361   -4.94530929290269
C         6.84771854247768    2.25649252716141   -3.45006149517530
H         6.35924453206089    1.61106227739607   -4.16517749366558
C         6.66514764926003    2.03698273224105   -2.09435240945257
H         6.04546431140449    1.21053766178801   -1.77988246898352
C         5.93994293565058    6.62706569692323    2.89140978036416
C         5.25186374480669    6.75603364613117    4.08804608735043
H         4.46381331652811    6.05278660233225    4.31964018039697
C         5.49137541140889    7.83166969689215    4.93283653839707
C         6.61395912508165    8.61064264738974    4.67239490375269
H         6.90466120729890    9.37987391897338    5.37220129476087
C         7.27905070452254    8.50230374815307    3.46720569567825
H         8.07326646478300    9.19449019181202    3.23267375069303
C         6.86079220883764    7.60233469785339    2.49273783901294
C         4.46475139977708    8.27254425659564    5.93630417388624
H         4.03345176172337    7.41429397368097    6.45249887430056
H         4.93935789691872    8.91353312333842    6.67904590050449
C         7.15459991123149    7.86847441839971    1.04223475202070
H         6.91466161441317    6.98938267353611    0.44498001652652
H         8.21149042177663    8.09342781287030    0.90335030333994
C         4.10114397974275    8.56389031876163    1.61115197643603
H         3.89652485034617    7.83124666748976    0.84408559853858
C         3.35929913715449    8.56613053966843    2.77614161610132
H         2.57755775329816    7.83101654417385    2.91158450319427
C         3.68946986680951    9.41872587291013    3.82466578173330
C         4.58503420640654   10.44804694852859    3.55905493281683
H         4.77861899415725   11.19630383507954    4.31386418186773
C         5.33003713143452   10.44335454230483    2.39514858446117
H         6.09727029845792   11.19067827978176    2.25289660683811
C         5.19338977243407    9.41301691575247    1.47169978397751
C         3.30465818114980    9.07491521190518    5.23424044303164
H         2.40150648837344    8.46361530729221    5.22905874514451
H         3.10343803079830    9.97578492525759    5.81433521669346
C         6.30218251030252    9.08210413956873    0.51581789112192
H         6.95041822169221    9.95073065025916    0.39966968532221
H         5.90236946921576    8.81732815507963   -0.46411505817758

