91
CSD_code = FOZBAY | q = 0 | S = 0 | Stoichiometry = C24H54N8O4Zn | MND = 4
Zn        7.21827492676790   10.33681228330543    3.91263471329609
O         5.46997757449894    9.91460281944621    3.40857544733479
O         4.57520377084906   11.07751859288808    5.07269765847820
O         8.17626663437319   10.52683772738454    2.32583165103114
O        10.04225369351487    9.54155771388752    3.02315885926519
N         3.22970007502672   10.06109627470449    3.56010258758414
N         9.85261449017057   10.17732704385167    0.86345114358959
N         8.13588112303220    8.89959037452431    4.94508240906387
H         8.92107599670916    8.72039479963229    4.31821320362546
N         9.57902700195801    8.18350052040221    6.65186486666139
N         7.35052965654711    8.62010531248469    7.11157762793364
N         7.18821109548008   12.03005733851190    4.96956315891303
H         6.18451910493998   12.18843249168182    5.03121368496842
N         9.22846126842214   12.54189776803096    5.94228395808567
N         7.27478525209271   13.07190954741663    7.07160133248223
C         4.46761262091723   10.38250588695550    4.04971610393274
C         3.11889092081447    9.24454879352346    2.36288594953240
H         4.15212502363797    9.02795543079406    2.07680520200938
C         2.40738579535874    7.91930746806938    2.64466363717891
H         2.89001385068832    7.40831847977515    3.47410284389521
H         2.46144364171577    7.28145258507787    1.76591388734243
H         1.35877109130040    8.07227173179473    2.89159633256375
C         2.45117471964534   10.00414653474947    1.21493829575301
H         1.40621695397992   10.21832146091728    1.43005979998944
H         2.49800823160741    9.40840922195954    0.30670781176065
H         2.97202543618199   10.94211805174458    1.04073158243486
C         2.01861410604159   10.53534513011740    4.21486827133443
H         1.17887755168210   10.14776173770695    3.63039974312971
C         1.90197388146716    9.98592945031038    5.63850195279154
H         1.94464911628678    8.89940739397816    5.62768639388137
H         0.95970954575531   10.29823168188260    6.08300013340026
H         2.72359251404703   10.36254251967428    6.23934934747648
C         1.93937651547942   12.06334661959546    4.20823840502727
H         2.76510853873046   12.47004330045590    4.78340531217681
H         1.00004062688974   12.39084692078645    4.64817486097123
H         2.00240696152541   12.43922336350980    3.18992672153098
C         9.34792696862698   10.06170385095156    2.13255001922759
C         9.08567794258792   10.78257960319606   -0.21653065139806
H         9.72397317656685   10.73758812205770   -1.10519006390242
C         8.77618385251623   12.25359458728082    0.06984610392853
H         8.11531787102910   12.32583271046028    0.92784867253072
H         8.29223913168475   12.70502040981856   -0.79343785503200
H         9.69384525371694   12.79777361270321    0.28310901617974
C         7.80561699042538    9.99763080559373   -0.50941386108467
H         8.04294524194181    8.96021074708960   -0.73418286922743
H         7.29171131449667   10.43343626935133   -1.36344176391586
H         7.15002914250132   10.02784355276175    0.35549450922843
C        11.18845487878574    9.67488306180201    0.59768452662903
H        11.52686874659672    9.27272962972952    1.55882643501403
C        12.14529760261615   10.79340012786581    0.17870653895023
H        11.87280248975653   11.20665613771915   -0.78987380429849
H        13.15845721278871   10.40425025328160    0.11187869137338
H        12.12709142756763   11.59209162049648    0.91615017296662
C        11.18043782593405    8.53728120795155   -0.42558816610827
H        10.47952242746166    7.76612011351848   -0.11643416705534
H        12.17296663101224    8.09828255665057   -0.49399334266392
H        10.89475525135710    8.89221270882458   -1.41331661613807
C         8.36297915353134    8.59551934852105    6.17714333701743
C         9.68121893988560    7.27328441618038    7.77159558472608
H         8.69498795766038    7.05140913388554    8.16870785548606
H        10.30520820174440    7.69858319431342    8.56298504221287
H        10.14255515391236    6.33735887184617    7.44189832638306
C        10.76361380311786    8.20023924288374    5.82017674933509
H        10.92981008222664    7.22803588166840    5.34434116631329
H        11.62485134559605    8.42625126599525    6.45249928732038
H        10.69403240555224    8.95118632192561    5.03740756357578
C         7.52668060996656    9.40454401716723    8.31623921634925
H         8.57907606901485    9.48556487850328    8.57225008207539
H         6.99272023380483    8.92863768824242    9.14161727796289
H         7.12031845059225   10.41338308715209    8.17816570437008
C         5.98725805745439    8.63867474211605    6.62304939745019
H         5.65151527540349    9.63539745706934    6.32792538335905
H         5.33979985291465    8.26795627813661    7.41919205652089
H         5.90821319823151    7.98334622972065    5.76001880046897
C         7.85527239704799   12.51275338927735    5.96348514189062
C         9.89270771003190   12.33901497852209    4.67181259302719
H        10.00454151438043   11.28438188107774    4.41080145234176
H        10.88223627678339   12.79476220179179    4.73352719053485
H         9.31994079320700   12.82485558577972    3.88697842275332
C         9.97310062417126   12.00674201565641    7.06262722028858
H         9.37744117283003   12.03575879047234    7.97024013276789
H        10.88291478340744   12.59277026396257    7.21147814940844
H        10.26065931301677   10.96783610462464    6.86502457729722
C         7.90573165400731   14.16287070447923    7.78217733459546
H         8.88144159412678   14.37690735522493    7.35595213405309
H         8.01683416218605   13.92311525001015    8.84358118360820
H         7.28608607020762   15.06132802556200    7.70022156591248
C         5.84560120788744   12.99668556184060    7.28847582112885
H         5.33318112530883   13.88089697908792    6.89384013772601
H         5.66336116644000   12.94510468200829    8.36390337982389
H         5.41858895770586   12.11534811523419    6.81614431677320

