85
CSD_code = FOZFAC | q = 0 | S = 0 | Stoichiometry = C46H32IrN4OP | MND = 6
Ir        3.07258587551390    3.02649220876628    4.65417797517883
P         1.12323478126972    2.75626935996128    3.28113136469769
O         2.08397406740484    4.95380320443914    4.95785617507424
N         2.30933093454612    2.50950629720064    6.45330143359559
N         0.50304028239067    1.88614523926658    7.83559516046740
N         3.97788549693091    3.51758929546332    2.93743071123787
N         4.42941821562934    5.12801466031562    1.28746347378289
C         4.64950053187779    3.43790878513914    5.85447657119216
C         5.84304414398250    4.06724552700363    5.51410704069466
H         6.06868550931059    4.27741117876078    4.47722753250173
C         6.75437034303500    4.45800210761115    6.47914139859004
H         7.67155839374918    4.94918745414259    6.18608767345111
C         6.47630199812697    4.26375200848145    7.82568628589017
H         7.16264208858989    4.62416139931299    8.57784305174109
C         5.31326504021571    3.62915816373059    8.20157443829363
H         5.07142149284032    3.54548435026393    9.24959296520063
C         4.42089428737877    3.16816858702298    7.22607334836876
C         3.16088716083211    2.51724651728776    7.50081428720826
C         2.74471064408557    1.92931233133000    8.73199013116949
C         3.59830374900209    1.53375290167201    9.77895157889087
H         4.66619298359941    1.57526796262011    9.63895996760685
C         3.07939526978981    1.02818752165009   10.94285645402293
H         3.74351649026569    0.72131464129627   11.73717141462337
C         1.69593860092439    0.88765704998383   11.11161823790637
H         1.31058289203088    0.50566746828299   12.04511432928294
C         0.84210670148061    1.18866158080660   10.08383394195327
H        -0.22215495639386    1.03314471606563   10.15919269875958
C         1.35140830028190    1.68027261157297    8.87075407268873
C         1.01893713111464    2.21134138291060    6.69598440561951
H         0.33100899753114    2.28424635328408    5.86184644902150
C         3.85248139646828    1.24318093549900    4.13302644119432
C         3.74014694545067    0.02574551100350    4.80251524889041
H         3.38423564788567    0.00667587760484    5.82424868800606
C         4.05490504033046   -1.17147781743222    4.18530731686167
H         3.96486630494527   -2.10048699603045    4.73039545652057
C         4.42893511803186   -1.18785259971747    2.84755456516555
H         4.59483499739316   -2.12870081584297    2.34360418873671
C         4.57548041459045   -0.00314012927067    2.15956276061705
H         4.79516540301643   -0.03165124533561    1.10444030058713
C         4.35996874056179    1.21853046412511    2.80701071102229
C         4.54358050296765    2.52925496336562    2.21867373317310
C         5.24373015664906    2.86396396119787    1.02227296007409
C         6.10458801326006    2.01622722218846    0.29985062869507
H         6.39045181576236    1.06450561001802    0.71505851116291
C         6.63730955764657    2.41991638293267   -0.89678947717220
H         7.29568852186488    1.75822511476898   -1.44012754684529
C         6.35539622663896    3.68838632850633   -1.41930247538955
H         6.77037272030515    3.97537099325899   -2.37407567233331
C         5.60427361386213    4.57492891179344   -0.69578107379294
H         5.42738365278319    5.58405507071085   -1.03198879491815
C         5.06840047384359    4.19389744790706    0.54562937953481
C         3.98548987879166    4.77181996814629    2.44742139070986
H         3.55102527139776    5.53915139770887    3.07616439620007
C         0.35843795669992    4.37544542205561    3.41604000473193
C         1.00834541355649    5.25849771015956    4.32403169457459
C         0.41662609379705    6.53477647350203    4.48477716900774
H         0.87979237360288    7.21615670413428    5.18353603092919
C        -0.69250637895634    6.90329107496218    3.76658556809090
H        -1.11357243366549    7.88908905075225    3.91011792738508
C        -1.27561528570708    6.04064659403328    2.83994111579626
H        -2.12995252912008    6.35800210819505    2.26084505052604
C        -0.74441405394802    4.78155792017944    2.66729074909814
H        -1.16483824130233    4.10615125176071    1.93132653185612
C         1.44107866565494    2.55023268645586    1.49179576440742
C         1.67971471429401    1.29247384531776    0.94487964005298
H         1.53119193501711    0.40633349981141    1.54392352532198
C         2.10710547153511    1.16925363979556   -0.36390467287437
H         2.29026379150880    0.18725830216556   -0.77593571256621
C         2.31107148010919    2.29698209741002   -1.14194579160223
H         2.66049245857993    2.19901372977214   -2.15917001729828
C         2.06239489745056    3.55099324357349   -0.61038123970907
H         2.21286188439352    4.43578359638885   -1.21114158310093
C         1.63361618634165    3.67870309076915    0.69766098362656
H         1.45172821624470    4.66226567508078    1.10882194853748
C        -0.16057380351789    1.48958478369688    3.59065152882626
C        -1.51097742258861    1.78450470861657    3.73740756788624
H        -1.85410198508615    2.80552556211337    3.65818226273997
C        -2.41655706314857    0.77320901405543    4.00678903038702
H        -3.46463332818453    1.01074725795186    4.11629137267460
C        -1.98473826546833   -0.53494314520968    4.14279192302417
H        -2.69574617784753   -1.32076924028209    4.35088657729082
C        -0.63530996836179   -0.82994559989986    4.03410512629187
H        -0.28927701397990   -1.84495338130736    4.16584321366956
C         0.27345483842969    0.17700841691408    3.77117262046379
H         1.33173971188259   -0.04457551570401    3.73165788453892

