60
CSD_code = FOZFEH | q = 0 | S = 0 | Stoichiometry = C30H21F5NNiOP | MND = 4
Ni       14.02125606936938    6.43756941306881    2.68834748030022
P        12.79357167187928    4.89144351760916    3.49042892773286
O        12.37964040689571    7.12356090056067    1.88093362975941
F        11.49596602697048    9.51821612376289    2.41347986758321
F         8.66155391516151    7.43259656276776   -0.75472124350671
N        14.86862253415090    7.98539621670706    1.91037590428881
F        11.89196881717494   11.55892911713174    0.71113866924848
C        10.01746332143872    7.19170651049924    1.72567150090520
F         8.98087606085805    9.53703425190512   -2.41027199994594
C        11.14321760760395    5.46285895569251    2.99430818595227
C        10.91587398438816    9.46110803579664    1.21031279946795
C         8.75705457406723    5.45966578893369    2.85065106066494
H         7.80316686448581    5.02441160192971    3.10416513550411
C        11.24038722068481    6.63222900351994    2.19417399439462
C        10.10300609153085    8.37508452614581    0.86816771817422
C         9.61513655247244    9.51610277418473   -1.23141088631068
C         8.81091980790356    6.58642319950399    2.04825927994858
H         7.89331684432068    7.02585458010132    1.68547917143104
C         9.93046736446291    4.89563757109917    3.32944599199983
H         9.89967100930762    4.01579928907715    3.95742380876710
F        10.64038462803496   11.59747068877806   -1.71247098388728
C        12.89021971522908    3.17099657545131    2.91524348136354
C         9.45204023792058    8.44294169539687   -0.36604479046737
C        12.65832111890271    4.73676017707730    5.29645070995888
C        12.13715741593836    2.74450561376714    1.82664463802725
H        11.45730231755142    3.43341880936454    1.34464164937960
C        14.64140542466025    9.16213215090134    2.49236111312851
H        14.48031145301923    9.15354651636327    3.56366054000969
C        10.45661439875797   10.56583209097354   -0.87928645689930
C        15.07707577497126    7.96128671661307    0.59484373668793
H        15.27122420369333    6.99154795780665    0.15119810561656
C        11.10050332487816   10.53613982680694    0.35199956597823
C        13.78231638972264    2.29003789023348    3.52143479354029
H        14.37870869650917    2.62777584589762    4.35778118962866
C        15.05659309174440    9.10300432336234   -0.18765615572335
H        15.22372572195179    9.03181158756225   -1.25124940418121
C        14.60643052773703   10.35262455007285    1.78717756217938
H        14.40406339347455   11.27950869061890    2.29911636826984
C        12.06401165650990    3.64933545490043    5.92542931767598
H        11.71812243501975    2.80791455392589    5.34174617134094
C        14.81052192957900   10.32524199885546    0.41720018346735
H        14.77338764014252   11.23442576311765   -0.16357872011771
C        13.11023979485665    5.81219423253576    6.05389157953459
H        13.57662358979557    6.64673787600007    5.53898248792244
C        12.25413573092879    1.44382246535325    1.36986814170775
H        11.66167511939038    1.11495593975792    0.52866126867986
C        13.12906938027879    0.56569899637338    1.98773107877427
H        13.21777946755234   -0.44956387063258    1.63028196867682
C        12.38391877739866    4.71501447887381    8.05381787990890
H        12.27868958246132    4.70135420218235    9.12856023480664
C        11.93165107074797    3.64215313849747    7.30255820490799
H        11.47343114833030    2.79556780396906    7.79288032770142
C        13.89491082731590    0.99153476765654    3.06200433191540
H        14.58238227862675    0.30883499973973    3.53977890474360
C        12.97366308942149    5.80249694499059    7.42908892532061
H        13.32755944975464    6.63718421865796    8.01603127235547
C        15.66172043066068    5.76552417213275    3.44230938505115
H        16.19097483674716    6.58645623258007    3.94084320112331
H        16.26301412909899    5.42838264472174    2.58691477417910
H        15.58938305556477    4.93556333872735    4.15009442135149

