86
CSD_code = FOZNAL | q = 0 | S = 0 | Stoichiometry = C23H50B9NSi2Zr | MND = 12
Zr        3.98270824012826    5.34987123204676    6.99543218943122
N         5.53081258296510    5.54073177495230    5.00574488788748
Si        1.35394308018467    3.12557917089627    4.80252330524980
Si        0.90371004689851    7.49657180036880    8.46028839635543
C         6.10793675174994    3.76638950567023    7.37214400519862
C         6.11753058597977    4.80238213314452    8.50899724044894
H         6.79856294888231    5.64933085899462    8.39809677955749
C         7.06733927451635    3.97054986982208    6.20351756085865
H         8.11003708366541    3.92033274152903    6.53722890377685
H         6.93934481731142    3.15569779834241    5.48350690806426
C         6.89842651643346    5.31869601598859    5.50967078651239
H         7.12241943063398    6.12506010936735    6.21791833030272
H         7.61874094053161    5.39814778491937    4.67574217012745
C         5.33380589830626    4.71085418190208    3.81369803530116
H         6.10413603023628    4.91630314593523    3.05512121845343
H         4.35964834358512    4.90352123310921    3.36927876799173
H         5.38473660301213    3.65516789797894    4.07796612481168
C         5.45496892616994    6.96750498642609    4.63621731126621
H         4.54697277824744    7.14110622749229    4.04546651658310
H         6.30837138330515    7.22477634815667    3.98606102445766
C         5.42953653834756    7.87321738974671    5.86156685907185
C         5.97409164029079    9.25689220851766    5.54573653948757
H         5.58780870117200    9.57869359908643    4.57291042829219
H         5.63617831133518    9.97853077414584    6.28876092702223
C         7.50425515844254    9.28983927165116    5.50183689894927
H         7.85450867021935   10.29934601316701    5.29661569826983
H         7.89271273069713    8.63452152178169    4.72443745203648
H         7.92317675342448    8.97087957370785    6.45364389763261
C         4.91074372632484    7.40482407537705    7.00851899761156
C         4.78579070391145    8.36196829275647    8.19490761848232
H         4.54645144738558    9.37699925610752    7.85134167823361
H         3.95887789090301    8.03428237235131    8.83804723850843
C         6.05452076245192    8.44369739119387    9.05140892602039
H         5.94493540214546    9.21610693982268    9.81082390096989
H         6.91734842364136    8.69338294653439    8.43793114789697
H         6.24166702556238    7.49952144115884    9.55692565415528
C         2.29598083477598    6.98994349947305    5.86433067397519
H         2.49849581391342    8.02877554741549    5.63705493288051
C         2.41213104771841    5.91399176278928    4.97512247336212
H         2.64097505593037    5.99697455264958    3.92032308880325
C         1.89098748476590    4.74120866580888    5.59371280396907
C         1.42457110314115    5.15145996182789    6.86295072075912
H         0.81989547020972    4.54465278850852    7.51976191922743
C         1.69448893629086    6.52209377947788    7.06744591490686
C         2.55110534995716    2.47735632175896    3.45196240252376
H         2.10955984479618    1.61508497313858    2.96282392715235
H         3.50338759723820    2.15874132995171    3.86236502654953
H         2.74329747587838    3.21612558184079    2.68018517170918
C        -0.32645045824713    3.42707126536565    3.93013924569229
H        -0.72118741236571    2.50881251080030    3.50671003364280
H        -0.23456344601589    4.14748843515821    3.12299721889405
H        -1.06470377863985    3.81338748116116    4.62559950748753
C         1.12774078761802    1.78142646642210    6.13718338161839
H         0.93645917781248    0.81543601694098    5.68022435485063
H         0.28036640742544    2.00634088567049    6.77713934800512
H         2.00230112233144    1.68018729625178    6.77249229761248
C         1.14490505415768    9.37901614245571    8.22426735845854
H         0.75081892100344    9.92280873076539    9.07653953602564
H         0.61750900903043    9.72905221129111    7.34283255315851
H         2.18759237577904    9.65342929587076    8.11361277270658
C        -0.98159466523282    7.15668771184659    8.41390008593038
H        -1.50939707502598    7.76836058324217    9.13893205795862
H        -1.20011741458876    6.11854150421346    8.64227954248084
H        -1.40117141586263    7.37028291920264    7.43580859528587
C         1.54323794550158    6.91004152401139   10.16823486200608
H         0.77758725481916    7.04241513853298   10.92651124779747
H         2.41660555974362    7.46242521077911   10.50101026907849
H         1.81038216934453    5.85550934554129   10.14994514461749
B         4.65438197276533    4.90511295381376    9.25791255248896
H         4.34704320719229    5.92264733893636    9.80520180115689
B         3.63320115081942    3.66652609486650    8.54469076684905
H         2.44324575883654    3.62046944641699    8.63010364664237
B         4.63321985882164    3.06151938468742    7.22300444387503
H         4.32201545352570    2.64678264515542    6.13243416754643
B         6.97843639426501    3.32182888240931    8.84441821181847
H         8.15592336579918    3.36216107733002    8.78914425609792
B         6.01486715618008    4.06804659856444   10.08751661020560
H         6.56272931964372    4.59688433499227   10.98801539460765
B         4.44199668241327    3.29979351486623   10.07659736414151
H         3.80656663756162    3.17911243262942   11.06500136431670
B         4.42970315241179    2.09483364695919    8.74836277061366
H         3.78894924471517    1.10209499053077    8.78511232971710
B         5.99603100643374    2.14442690982461    7.98320775842712
H         6.53699254896431    1.28987150990585    7.37356711758987
B         5.89661593532749    2.32102029680678    9.75204204654017
H         6.29302887240114    1.49786061714286   10.49493460281224

