49
CSD_code = FOZPUH | q = 0 | S = 0 | Stoichiometry = C19H23NO4PdS | MND = 4
Pd        1.62227596241368    1.27735485310227    2.98801044754510
N         3.13164183789057    0.01670625774280    4.07175976175659
C         4.38238393727535    0.39303854728280    4.19329824577388
H         4.68362787101286    1.26871686290599    3.62725645455508
C         5.31188906237923   -0.29614544809564    4.98869782405018
H         6.32732464543058    0.06159784178749    5.05219871079530
C         4.90830106947436   -1.41816201580225    5.65946928894655
H         5.59410692019419   -1.98752663279662    6.27044086520653
C         3.56620327331723   -1.84149109829125    5.55821859567555
C         2.68836532796365   -1.06693124506918    4.74988280500813
C         1.32722779348396   -1.45893457951186    4.66321047372859
C         0.88104528328050   -2.55909045615080    5.35142480779413
H        -0.16466488495839   -2.82133852949509    5.30349182386444
C         1.75835409514714   -3.33104725185141    6.12468184182054
H         1.37929996872385   -4.19608011262140    6.64729098301495
C         3.07553784376861   -2.97959777597338    6.22914840077541
H         3.75803800138990   -3.55766938405010    6.83478044958815
S         0.13789851111376   -0.48931605621161    3.74946930006348
C         0.13504269625678   -1.32881179575402    2.06804038809297
C        -0.54864272854379   -0.31555509444745    1.15655423599225
H         0.08436567947194    0.57988252177437    1.06107968435309
H        -1.51826319403584   -0.02568911534303    1.55935521142321
H        -0.69426629414156   -0.74235513329256    0.16589110511425
C        -0.65398098590370   -2.62427478681591    2.17639144561668
H        -0.73786368704815   -3.08882607284574    1.19562963012297
H        -1.65502713187146   -2.43036230736713    2.55391871011875
H        -0.15702781949546   -3.32543323924795    2.84384257502485
C         1.56245635443443   -1.57063784908915    1.59953215577876
H         1.54462602245793   -1.98546593716263    0.59244469824247
H         2.08593620881270   -2.27085416793346    2.25073862401135
H         2.11125094045326   -0.61542954877016    1.56702497168684
C         2.27670668471315    3.10389161535413    2.30421337435388
H         2.88040956908608    3.60204165009362    3.05850142588707
C         0.87198605209222    3.12493863510195    2.32792618386422
H         0.28563684806795    3.08493722747372    1.41294811800468
C         0.22647455664921    3.59451375815653    3.55793758929351
O         0.74046756147633    3.52578371630359    4.65881490254047
O        -1.01162655864829    4.08909449211665    3.36017550287186
C        -1.71327265515674    4.47303265494949    4.53093936501904
H        -1.69904384652556    3.66125915037045    5.26198842775994
H        -2.73155734681509    4.69410774205951    4.22030259745117
H        -1.25120452800686    5.35598664586061    4.97885108796248
C         2.91732974542776    2.32570893346335    1.26991933119145
O         2.36595300025620    1.77951971481413    0.32233595042184
O         4.27472442692475    2.25864099027577    1.44249927702374
C         4.95944945583485    1.43502696494823    0.51612948359107
H         4.72908646641155    0.38103200102421    0.69904807155692
H         6.02080362599572    1.62144708558689    0.66462500518275
H         4.66321436208343    1.68676577149715   -0.50433020947278

