57
CSD_code = FOZQES | q = 0 | S = 0 | Stoichiometry = C30H23ClNPPd | MND = 4
Pd        1.74460155655228    1.63507793522965    3.23804881644721
Cl        1.12722062457968    1.57149242507552    5.40357459053395
N         0.43521411878519    3.39416108211561    2.75775274744477
C        -0.36981137591734    3.91984540858340    3.64829788613284
H        -0.25412138402887    3.56033619242877    4.66717636369803
C        -1.33100775629494    4.89318781028483    3.32695187092698
H        -1.96710255388584    5.28554851202224    4.10435298588129
C        -1.43579020030183    5.32351449611555    2.03298131331643
H        -2.15813755881064    6.07350914799774    1.74386421822540
C        -0.58049321721884    4.77735015950043    1.05122651426573
C         0.35343435376043    3.78921872240283    1.46144148732642
C         1.21780340795031    3.21076157823732    0.49586175421013
C         1.16593115995815    3.63391607307518   -0.81083763241759
H         1.83671498699974    3.20211870718431   -1.54016066075647
C         0.24655074933366    4.61286742069888   -1.20971134023159
H         0.22194550264998    4.92337877981765   -2.24358747015581
C        -0.61341112502427    5.16940990291505   -0.30211055580183
H        -1.32863653556200    5.91978555417717   -0.60594600875674
P         2.39848135474202    1.96468114953453    1.12470176417977
C         3.90231908131656    2.99466237330280    1.11437070291496
C         4.12127918516077    3.73471051472759    2.27479971761647
H         3.41436683116842    3.64146299184003    3.10574979271874
C         5.22079312369599    4.56538520927429    2.37199428879760
H         5.39237836380812    5.13364071686412    3.27401232842426
C         6.10756772125683    4.66131109313655    1.31077764721256
H         6.97374525095053    5.30158319241788    1.38745348895236
C         5.88463486032933    3.93802912310046    0.15088780005045
H         6.57425792890172    4.01902773572538   -0.67665989971280
C         4.78117973012059    3.10940857832286    0.04483875029985
H         4.61094211032378    2.54588472347498   -0.86163747953986
C         2.61362218477188    0.75976303154493   -0.20737899555357
C         1.56227700938133    0.40470230829607   -1.04787758843024
H         0.61782132459735    0.92781006625721   -0.97819562688592
C         1.72536825757098   -0.61729062575433   -1.96535924116686
H         0.91042269292561   -0.88392963537318   -2.62246612361093
C         2.92597278406930   -1.30502926307357   -2.03568181734761
H         3.04849436227626   -2.10391820028400   -2.75184219022128
C         3.96325049740575   -0.97918976473527   -1.17561635799028
H         4.89250723318788   -1.52806405803781   -1.21632614430302
C         3.80802218925494    0.04227528072377   -0.25823244094496
H         4.60528692075765    0.28919055772716    0.43055358748701
C         2.76099102590339   -0.09918757919232    3.44818238098356
C         2.04446327657910   -1.16597477244085    3.33596297692343
C         1.25428972157918   -2.20686443933491    3.29653695166691
H         0.83288174002719   -2.63270374145418    4.19379062113955
H         0.99609840781633   -2.68553444505202    2.36393897850326
C         4.20281789441325    0.07881354036211    3.52640507173540
C         4.72267163527105    1.19791451866274    4.18647157174379
H         4.03457275010581    1.86584281728127    4.70986630042662
C         6.08432584580880    1.42681511755448    4.20987822836404
H         6.47737712006575    2.29323422287598    4.72229001922596
C         6.94915615854542    0.54872645324866    3.57536838882950
H         8.01333117897264    0.73429064110074    3.58453828667174
C         6.44566831428023   -0.57350578389206    2.93692106670884
H         7.12087820983997   -1.26520735318931    2.45273467161638
C         5.08472486752374   -0.81316590510615    2.91238681832353
H         4.68665610139088   -1.68608029841369    2.41428482387963

