30
CSD_code = FOZXOH | q = 1 | S = 0 | Stoichiometry = C15H13OW(1+) | MND = 12
W        -0.49536808614942    2.12363947375136    5.36895946821164
O         2.56131313013105    1.57579487482592    5.80140357091232
C         1.43227572161639    1.69748985101620    5.66845785077403
C        -2.02537517344825    3.48287609909237    6.45817415629728
C        -1.89936351995851    2.28163866693967    7.18911488323102
C        -0.53782147885875    2.16236391488940    7.63826345953927
C         0.12529508324298    3.42671880585662    7.33838288565623
C         1.37567336356091    3.95067726152579    7.72049562044191
C         1.69102916349867    5.23154685340391    7.34004724388883
C         0.79213344336355    6.01839151863170    6.59797974247076
C        -0.44202665461108    5.54450370988806    6.22668795583476
C        -0.79823124936279    4.23262032296002    6.59223509202408
C         0.26665872220296    3.09341936774205    3.44617739304110
C        -1.05815994486963    3.54072793640520    3.65903077707769
C        -1.94267537628581    2.42811544458367    3.51647763047419
C        -1.17052791903074    1.29789914780350    3.19440938799600
C         0.20574770445774    1.68328123396316    3.18602813926581
H        -0.78767877409548    0.52880244784444    5.56988108322537
H        -2.96581693295333    3.90263005520424    6.11747673524643
H        -2.70846625612425    1.61925439899752    7.47389851494430
H        -0.21052641063184    1.47361389927746    8.41339753817068
H         2.04975506739907    3.36310174103422    8.32639936835729
H         2.63527682426222    5.66011924467771    7.63565181337317
H         1.07257808509200    7.02825092107540    6.34320088164586
H        -1.14569623092820    6.18096090442626    5.70957025171295
H         1.13774962695359    3.72037795266953    3.30237360266256
H        -1.36741707360800    4.57678296325111    3.70866995204462
H        -3.02353526384620    2.47904129554088    3.47548443525858
H        -1.54866054313242    0.32498794370870    2.90574969021881
H         1.01376095211381    1.07847174901540    2.78482087600269

