83
CSD_code = FOZXUP | q = 1 | S = 0 | Stoichiometry = C40H34AgN6O2(1+) | MND = 2
Ag       -0.05881303725254    7.26931419832163    6.88133695004514
O         0.89694824061908    5.04346701627819    7.96461784076580
O        -1.46660968237457    4.99022729620893    6.73346791782379
N         0.39088310821096    6.73255802621757    4.24224217749963
N         2.65827825139654    8.00744586602214    5.41891438365835
N         2.99043800741324    7.03569110892456    7.32044478323958
N        -3.17126306288743    7.21121246774690    7.16251897064885
N        -2.39036661441500    8.02525444368059    9.00700438760921
N         0.42724896543733    7.28591980862408   11.11622534256504
C         1.24893563236539    7.47814093621205    3.54925110136951
C        -0.17200340209299    5.69921214885774    3.63456210389113
H        -0.83688046973592    5.10227308844055    4.23964732608146
C         0.06756907962196    5.36687233144087    2.31081730870388
H        -0.41619864637635    4.51233593767172    1.86595355820076
C         0.93990905855375    6.15769671280569    1.58182306213527
H         1.15161014128143    5.94065041248601    0.54613528856793
C         1.54877379274083    7.22798942856408    2.21713183491545
H         2.24418370325249    7.85978464466597    1.68705745532206
C         1.93406353194080    8.58475572141968    4.31773216599797
H         2.61475028658375    9.14475011202289    3.67536337599976
H         1.17408446126222    9.25763350486198    4.73047895472065
C         3.96549297948999    7.57337810885773    5.39657270006656
C         4.18362685526433    6.94583362911817    6.63652443769691
C         5.41642382306896    6.39676522310910    6.95702442881735
H         5.59269510622063    5.91453482988184    7.90565836851482
C         6.41610817944800    6.49343341237343    6.00851046546386
H         7.38887276792093    6.07953021534876    6.22227169920359
C         6.19907285261860    7.11276880254237    4.77816298175752
H         7.00860917945691    7.16315097567906    4.06728698864977
C         4.97479687140287    7.66160400899358    4.44937576561398
H         4.81743298107767    8.13773157668063    3.49472991001425
C         2.06109662490783    7.67300919814468    6.57938831947676
C         2.71240800662664    6.49004323282718    8.61688396992412
H         1.95388908472837    7.11541855080676    9.10004895937502
H         3.62399917292076    6.49791563868926    9.21826502943563
C         2.18827425912045    5.05474026595388    8.53944385793118
H         2.86892209209035    4.43940046514263    7.93392628505210
H         2.14569654365058    4.65440698582847    9.56033318028229
C         0.25893557070068    3.82886809891437    7.89869674250371
C         0.76694002322421    2.66689316044885    8.41540625072274
H         1.72697347878522    2.64572484006670    8.90471434477706
C         0.06560938644677    1.44438636012996    8.33511174981419
C         0.58271488763697    0.24968499247220    8.87276181225325
H         1.54479260147456    0.27082387120579    9.36355731752711
C        -0.12206536542186   -0.91889252289611    8.77333201273729
H         0.27862583487852   -1.83189699801148    9.18634221861618
C        -1.36967563710916   -0.94251701886312    8.13338051351896
H        -1.91135736648100   -1.87323652874878    8.06245871307119
C        -1.89637757380335    0.20338389341142    7.60276057978671
H        -2.85694834843264    0.18916570821708    7.10871780046825
C        -1.19313439681387    1.42020645981389    7.69169899213205
C        -1.70052964084291    2.62164876968524    7.15258901635011
H        -2.65462608099235    2.57128822499751    6.65242715474168
C        -1.01234811844021    3.80102725576022    7.24599241308899
C        -2.77967606050334    5.02575340453626    6.21411589934530
H        -3.48708354148566    4.61761211420131    6.95000881052420
H        -2.85115139992481    4.43606354140509    5.29006693261920
C        -3.14039257525332    6.48737947449883    5.92504122423270
H        -2.36997932985896    6.92827986770055    5.28427813840229
H        -4.11141738777708    6.53894273673096    5.43015011553897
C        -2.04578911084406    7.65960734070704    7.75671151494323
C        -4.24318901923642    7.28026017414046    8.02737332335350
C        -3.73549836298263    7.81374315332333    9.22493183387020
C        -4.55741299195783    8.02086869771507   10.32376062317516
H        -4.17777033357034    8.42569421232796   11.24833111268311
C        -5.88975315817342    7.68435536120159   10.18659924386031
H        -6.55990114628190    7.83279675701896   11.01843537736274
C        -6.39277016429973    7.15449521568867    8.99822843472594
H        -7.44027489151148    6.90498075884067    8.93779684548591
C        -5.58232377483159    6.94081149051809    7.90030340250917
H        -5.97982301941223    6.53059479443763    6.98528502542163
C        -1.42521393579429    8.35074113721530   10.01869336907410
H        -1.91164264206323    8.90654709754568   10.82513835060682
H        -0.64086202441788    8.98270042992352    9.58893863692271
C        -0.77483259258286    7.10571933431507   10.58686937163652
C         1.04220492062295    6.25437487646560   11.66671773240216
H         2.01126186696093    6.46991579813317   12.09738661475028
C         0.50885834459056    4.97460670706255   11.69280862667169
H         1.04661939513682    4.15989899044613   12.15166062864458
C        -0.73557090615030    4.77701613052392   11.11598892720953
H        -1.18750067013557    3.79591965490442   11.10172189383853
C        -1.39698289239447    5.86127245684103   10.56316204907418
H        -2.37892057617918    5.73383939360857   10.13371467194069

