32
CSD_code = FOZXIB | q = 1 | S = 0 | Stoichiometry = C16H13O2W(1+) | MND = 11
W        -0.22162064632926    0.13194325511511    3.93005026873169
O        -3.08749817511773   -0.85522726185084    4.70667803625773
O         0.53372424345644   -2.22063936979557    5.83298337024006
C        -2.05006265957290   -0.46391238355480    4.43287925596050
C         0.23845063659078   -1.34640919936718    5.16080977120885
C         1.29231704163568    0.56621267581700    2.22406941894947
C         1.10503690102846   -0.82626401484936    2.29749487653733
C        -0.28143434011883   -1.12309674638101    2.06761468079657
C        -0.91915971161894    0.12000911098903    1.66245049135388
C        -2.20440381326186    0.40814306931402    1.16030596055911
C        -2.48687417555314    1.69865969829726    0.78922428589528
C        -1.52803203687777    2.72249323749593    0.89794177592301
C        -0.26693922422056    2.47850024753359    1.38198021618325
C         0.05929419910139    1.16650032538106    1.77800737356494
C        -1.29596404639117    1.45726128004686    5.60367975905574
C        -0.51033266614704    2.24673603541183    4.72089732482069
C         0.84776440019621    1.87487764930416    4.91237648881307
C         0.86987737624216    0.85141687679443    5.90181274867948
C        -0.39264599524914    0.99280282289434    6.72985804469452
H         2.25520584807092    1.06083736768740    2.22297295933176
H         1.88906965321885   -1.56566065323629    2.41201688833300
H        -0.66710393562731   -2.11246966635127    1.83930418637879
H        -2.92925670826048   -0.38341510015987    1.03769385093973
H        -3.45649504467084    1.93749971136315    0.38240383917786
H        -1.78990481357902    3.71670349830105    0.57139401307745
H         0.47639348945640    3.26224040521019    1.42483766828278
H        -2.33898488303724    1.69030270365555    5.79349347760683
H        -0.87296140885118    3.06360396862170    4.10623362807263
H         1.71073072336521    2.37903587030837    4.49247114068188
H         1.79804805078118    0.50921831195536    6.34917037061435
H        -0.72105862068394    0.07160415466087    7.21482767985574
H        -0.28887965796752    1.76469211938859    7.50506614942359

