105
CSD_code = FOZYEY | q = 0 | S = 0 | Stoichiometry = C55H44ClOOsP3 | MND = 6
Os        5.17209627686179   15.71459616559555   14.77998951179902
Cl        5.38417914967061   17.75170755981717   15.98887429625558
P         2.81330619030732   15.92924973250708   15.28863157257809
P         7.22966217653050   15.67434626480487   13.69736303536284
P         5.92016310894882   14.84328990788582   16.92403430495981
O         4.40747302862039   13.18408768388007   13.32111399410053
C         4.75369352188401   14.14160651264112   13.88124238298403
C         2.88110754737289   17.06036766357141   13.87603543898643
C         4.18818006036759   16.93888001764991   13.37118921429869
C         4.52624387756936   17.76268272076367   12.30407361467951
H         5.52111002232409   17.73782824473695   11.87489183758517
C         3.59214011475474   18.64215365969081   11.77285542241792
H         3.87598623067211   19.27458913796470   10.94243163176447
C         2.31283322588269   18.73996541928241   12.29673883467877
H         1.60792107471657   19.44270668867482   11.87519998789637
C         1.94515077895279   17.95004249023343   13.37291225823013
H         0.96311371932710   18.03543591226156   13.82129611063014
C         1.74072618517018   16.76254516839665   16.49587555302589
C         0.69770822862400   16.10461864898762   17.13863861925990
H         0.49765278178703   15.06428545681600   16.92323436329675
C        -0.08737004404376   16.78762357376637   18.04923888526908
H        -0.90327282064021   16.27720188857050   18.54083489883147
C         0.16837753506407   18.11936644949224   18.33197020452078
H        -0.44839871274642   18.64786336514057   19.04461201081508
C         1.21566728347133   18.77254312523644   17.70160724383856
H         1.41901905395262   19.81018702599278   17.92372151559912
C         2.00207762670426   18.09936592948806   16.78660777337248
H         2.82556785999268   18.60039717277636   16.29734693355961
C         1.77531830349969   14.53437495081155   14.73737456143928
C         1.87048137648522   13.33801707810137   15.44317406521184
H         2.53356035694755   13.28181623320511   16.29743803580640
C         1.12893077115638   12.23901501698554   15.05438010471245
H         1.20649141346278   11.31254415578830   15.60523758306825
C         0.29437902011402   12.32454591189556   13.95140973075865
H        -0.28070795456031   11.46413442440354   13.64173796667720
C         0.20504924607443   13.50947683686499   13.24036720871537
H        -0.43957923220045   13.57261260725982   12.37551169534143
C         0.94293623842104   14.61382630876542   13.62864445289158
H         0.88349520618130   15.53493180129887   13.06652344519237
C         8.43639501852151   17.03451323670635   13.88984484186884
C         7.90721876213021   18.32296508704777   13.88938058202282
H         6.83673977630606   18.45593428864962   13.82019871526419
C         8.74029374728233   19.41975247238685   14.00811687433724
H         8.32010423408779   20.41442890195183   14.01737736424962
C        10.10887676418079   19.24057516501430   14.12311290768577
H        10.76158824994579   20.09565075540730   14.22260653759184
C        10.64181334845916   17.96182392124070   14.11101352680607
H        11.71005816585424   17.81997913279780   14.19436416354755
C         9.81415462251025   16.85939601657904   13.99288531280575
H        10.24245623062647   15.86667117824210   13.98491298593515
C         7.24536740813841   15.53058512189291   11.86494490852106
C         8.44661438241572   15.67015987192656   11.17516030832274
H         9.35565427297605   15.89834081925027   11.71236321153494
C         8.48465728725903   15.52155259225492    9.80105084508966
H         9.42214504237215   15.63429200068590    9.27607863388251
C         7.32663413791266   15.22948826506096    9.09921634048707
H         7.35848580080290   15.11572108283626    8.02565599147212
C         6.12939920517282   15.08551143412508    9.77946810956833
H         5.22239427812667   14.85772130326480    9.23924660056518
C         6.08763147151882   15.23411335658811   11.15465652592731
H         5.15057686364844   15.13311338808220   11.68328931389725
C         8.15819399020242   14.14965129534075   14.10255663566216
C         8.97827981666367   14.05776886995685   15.22394649016006
H         9.12817466486695   14.91735085909661   15.86155955120334
C         9.61194853901282   12.86695169051502   15.52998018591495
H        10.26297474977605   12.81435668054484   16.39046867205944
C         9.40657699176964   11.74528946090952   14.74587559584615
H         9.89873241356541   10.81591745305515   14.99110103392703
C         8.55984398029470   11.81793900418563   13.65231263987010
H         8.38298443073612   10.94179560885798   13.04590364429837
C         7.94121939415055   13.01079796243510   13.32990237536679
H         7.28381528815691   13.06385679631500   12.47363795279181
C         4.50759074410143   14.77415196499157   18.08511199226021
C         4.03779957456315   15.97987932669845   18.60425315868576
H         4.52142530424141   16.90599878292423   18.32447989035699
C         2.96573461889913   15.99301655752021   19.47517416912954
H         2.61443156191935   16.93159667715537   19.87796653827297
C         2.33828996288251   14.80806236434424   19.82333188166317
H         1.49791422086466   14.81950045853554   20.50171641965487
C         2.79132113543684   13.60925443402684   19.30015804971499
H         2.30448306218182   12.68232439143926   19.56879688257517
C         3.87332823559821   13.58728839804086   18.43655427841055
H         4.23274890757038   12.64356498602301   18.04845145279191
C         7.09100460365635   15.79476809375577   17.95658179758362
C         7.09924697486598   15.66509948721047   19.34394330700119
H         6.38588381075662   15.01437363369955   19.83227924314018
C         8.01339984535990   16.37524918538558   20.10021949695505
H         8.01224647586095   16.27112097795460   21.17594020403355
C         8.92421338029017   17.22038176755629   19.48620942171517
H         9.63228517910485   17.77626894867240   20.08339845361952
C         8.91507786830218   17.35941809278849   18.10896943429891
H         9.61112314717932   18.02660193842634   17.62109542970226
C         8.00165719742330   16.65013270140404   17.35083053869693
H         7.96874384552985   16.79046308969381   16.27902267733010
C         6.57236779767842   13.13868937008878   17.10401143330969
C         6.01165497356528   12.16241553089215   16.28509365699796
H         5.24434370929657   12.44477237995217   15.57759485348245
C         6.42528106070171   10.84690803047808   16.36921032310737
H         5.97897684197373   10.10138551371119   15.72759269359671
C         7.98179235701600   11.45616598306850   18.08382011636353
H         8.75554757070035   11.18307723839080   18.78713372716369
C         7.41209166790784   10.48997760473485   17.27288892885194
H         7.73877440321957    9.46277839625764   17.34203890442637
C         7.56955775983195   12.77435521076535   18.00031383170932
H         8.03268904435762   13.51746449819032   18.63276713451025

