42
CSD_code = FPOXBC | q = 1 | S = 0 | Stoichiometry = C18H11BCoFN6O3P(1+) | MND = 6
B         5.96102624587109    6.76086042115505   -1.89950339173161
Co        7.60086858246798    8.26135435070888    0.48512746558140
C         5.29227499280862    9.56491213408176    0.08858951224920
C         8.99321217966493    8.98330018010756   -2.28998277790658
C         8.21362279693428    5.65227976767312    0.54098789683355
C         5.88035877852486   10.26495045451773    1.17861039880837
C         9.76088937250825    9.66704622153577   -1.33268242045483
C         8.92985722366896    6.18001093574523    1.65127224775357
C         5.32032912595664   11.36279318694931    1.83650749246571
C        10.85966837190868   10.44515892938253   -1.70583742853122
C         9.73875263288286    5.44425528112908    2.52080332992289
C         6.04222322276419   11.98081056017808    2.83638950908810
C        11.57633307430055   11.09372490935733   -0.71745450805531
C        10.42738287176241    6.10878077169545    3.51437539844518
C         7.32935562151956   11.52602631021873    3.10623171169782
C        11.17630410468025   10.94598659332249    0.60210282288000
C        10.34003558423797    7.49639176098574    3.57085938094430
C         7.82759705636334   10.43109545777448    2.41239328032992
C        10.07014206175780   10.15216624091265    0.89094228066892
C         9.51906901765690    8.16716973149885    2.67374699636065
F         5.29127954841723    6.15101153663567   -2.84393890294595
H         4.32175599468886    9.78966223068959   -0.32965241039511
H         8.19108576125462    4.60663659459793    0.26979138759628
H         4.34007810721413   11.70844943464641    1.55110900599554
H        11.12886464791862   10.52699635534757   -2.74637827346577
H         9.81334776931786    4.37583517299553    2.39937541267064
H         5.63104302975024   12.81595684345487    3.38067654225868
H        12.43036580302224   11.70309150776974   -0.96887689922224
H        11.04260441168471    5.56959164254342    4.21692313254065
H         7.94596303135191   12.00799327399134    3.84950389964530
H        11.70538555487043   11.43385524098504    1.40627734478091
H        10.89679767018019    8.06025556826615    4.30363680692231
N         6.04894384229631    8.62529470921783   -0.39946080900864
N         8.20694556393944    8.33411814709308   -2.84616811728572
N         7.59523357127418    6.55691897516935   -0.16098502452611
N         7.10473205637731    9.77585301601183    1.50506329643498
N         9.37752734305319    9.52650449654414   -0.05229902334971
N         8.78499661528812    7.52568076997766    1.76573211980251
O         5.48678134156931    7.97185562169057   -1.48441294977679
O         7.45353456351187    7.69826895497086   -3.49255792455066
O         6.93160894181123    6.04213062950752   -1.26311470600229
P         9.59962191296690   10.00826507896452    2.69117689452935

