116
CSD_code = FPZBWB | q = 1 | S = 0 | Stoichiometry = C57H50FN2OP4W(1+) | MND = 6
W         6.26593374078667    4.78796940629110    2.02028799092201
P         4.31208867954841    5.80256032103084    0.73787670757431
P         7.27933090552732    5.89997739486385   -0.09755065772086
P         8.60966998814423    5.52106382294316    2.94495600554829
P         6.74188159801958    3.26356702818692    4.04504947540191
F         6.78138494109863    3.34905378265779    0.79539463409995
N         5.80996762729840    6.15640053029176    3.11209201697138
N         5.08705811854678    7.13851851880256    3.48177858001202
C         4.08332075813264    7.71125134237832    2.61087671418305
C         3.78976828038532    9.05996989784604    3.24556350616772
C         5.40475980121051    7.99412831964049    4.62710897065529
C         3.63712975598985    7.23567056220657    1.46607133209795
C         4.96638835397566    9.20202224155200    4.12417333049130
O         6.15667726838289    7.56076664192662    5.48966972228425
C         4.76437373244470    6.39402217480135   -0.98203756084689
C         6.02807976756282    5.68384190769551   -1.44231130887935
C         8.42102204525752    5.38144416783068    4.77800400519926
C         8.10843642040169    3.93529428739421    5.13494116771133
C         2.86490572199973    4.78239115831327    0.30103432821608
C         3.06713743063099    3.58741574266856   -0.38000599435878
C         1.98392598987410    2.81736853873544   -0.75700324110965
C         0.69886101625195    3.23630020031785   -0.44917332915325
C         0.49755835119172    4.42737380145223    0.22823302496299
C         1.57923468560596    5.20453682467330    0.60232427381815
C         4.48059007417408    3.60493963437311    2.47056982963536
C         3.40057350291468    4.14289310991040    3.18349233458525
C         2.25574699683290    3.41491966687345    3.45683276593662
C         2.14691885767755    2.10539587488392    3.02319367781374
C         3.19503356761271    1.53762687237050    2.32293114406957
C         4.33792550299237    2.27588780070815    2.05778719268866
C         8.78497324707317    5.21813094696284   -0.87759837102061
C         9.96290843772660    5.95600867841724   -0.95633663428910
C        11.10254699128731    5.39154068937691   -1.50099062666217
C        11.08043486011847    4.08940242004339   -1.97158800329160
C         9.90745200702314    3.35500468568363   -1.91035982839300
C         8.76523119921100    3.91215986895957   -1.36589964541085
C         7.47965194178941    7.70795879260450   -0.17090422075855
C         7.93217947017252    8.35999330582627   -1.31593226260159
C         7.99603856132789    9.74070253611506   -1.33852066451441
C         7.59673547223014   10.47909549811283   -0.23427132546513
C         7.12855308057156    9.83664658416902    0.89941494593869
C         7.07397606835131    8.45526208980678    0.92791508268954
C         9.34141060080796    7.18673985240380    2.81283415936414
C        10.42140541054536    7.41474879665975    1.96365695228876
C        10.94412457044929    8.68802431494444    1.83167637089017
C        10.39903204725898    9.74189653741887    2.54670365530654
C         9.34088873106411    9.51490821951759    3.41114856301836
C         8.80781309902269    8.24563680145795    3.54428611986711
C        10.05088384069358    4.43066194494179    2.67871583295671
C        11.27037834652874    4.65836287409378    3.31255177834993
C        12.32502719868015    3.78969016744493    3.10622709120772
C        12.17369812995759    2.69226951695248    2.27131675261687
C        10.96359509169208    2.46190228867216    1.63970957646762
C         9.90485834241817    3.32900513707779    1.84376089075435
C         5.35886133242275    3.22173194916823    5.23011248125382
C         4.59819580766199    2.07446812804663    5.42983330233355
C         3.53463764663773    2.09885875221586    6.31378290964672
C         3.21939356951238    3.26262711435158    6.99481360434074
C         3.96950065694946    4.40963812926021    6.78992257343261
C         5.03368286991346    4.39516815463556    5.90773959806862
C         7.27867539078909    1.52068326768431    3.97135089840142
C         7.49131697196291    0.83401823482232    5.16663708605781
C         7.94699707997338   -0.46969626542090    5.14419486136561
C         8.20041632141439   -1.09891290292445    3.93443386594716
C         7.99810616124053   -0.41884943159912    2.74640822811859
C         7.54042189965767    0.88805093885457    2.76266107649468
H         2.84995279224801    9.02756808735323    3.80724063140608
H         3.70987983266132    9.84438890857702    2.49242351656932
H         3.92383316342171    6.19950132472061   -1.65323980068313
H         4.91580670011149    7.47739280509393   -0.93169679520286
H         6.41507246096908    6.09295404551570   -2.38193210473858
H         5.83955173531708    4.61255258226870   -1.57579424658744
H         9.34682454073478    5.71404870242196    5.26017064881790
H         7.61405677543257    6.05504025159493    5.09708790053512
H         7.81188427103470    3.85043333654388    6.18413206067276
H         8.99608450976484    3.31138605492033    4.97549678547860
H         4.07844352703321    3.26149172425096   -0.59838202212048
H         2.13731710316878    1.88903107702415   -1.28700734157952
H        -0.14657291352104    2.63137764616592   -0.73974807880290
H        -0.50473517806356    4.75150966732434    0.46424592006240
H         1.44767476236436    6.14144745719568    1.12453353309862
H         3.44911590718005    5.16677342467075    3.54239961265740
H         1.44568850783288    3.87403936626742    4.00337807241085
H         1.25375335683470    1.53535386500551    3.22719725671958
H         3.12554191965908    0.51608394232342    1.97796649235939
H         5.12586866436124    1.79439126996973    1.48840548335715
H         9.98086408439309    6.97781557580661   -0.60749945330387
H        12.01001411291350    5.97347137919294   -1.56070175688424
H        11.97208160332217    3.65169638779485   -2.39295849495878
H         9.88172692047630    2.34493154463273   -2.29058743603361
H         7.85872377134552    3.32662482328316   -1.31958186081930
H         8.23320343762784    7.78957615675422   -2.18371192505048
H         8.35152205549559   10.24411958407378   -2.22479276963647
H         7.64453888618832   11.55650439688045   -0.26352155332031
H         6.80234464840985   10.40191045531092    1.75841455734346
H         6.71208889843007    7.93975937177392    1.80759301426476
H        10.86617864376633    6.58709563312102    1.42960406732463
H        11.78395968746385    8.85561262086677    1.17407200768125
H        10.80780268171107   10.73463910189317    2.43969393148803
H         8.92576569951266   10.32628830450442    3.98844113332093
H         7.98757820546651    8.08959394799365    4.22708875238915
H        11.39341433174393    5.51917726639175    3.95473034030978
H        13.26953751948031    3.96827421891494    3.59701289248240
H        13.00217192737441    2.01930264195995    2.11354386460685
H        10.84379074381297    1.60986947045439    0.98836349106856
H         8.96177367360707    3.15758221876334    1.34196469708640
H         4.83212816889673    1.16738643627552    4.89128037010364
H         2.94945883252778    1.20518030650977    6.46747347704350
H         2.38805549021805    3.27682588811025    7.68270655678986
H         3.72664251089977    5.32006002102937    7.31651791387383
H         5.60506413848439    5.30027210075521    5.74824590798673
H         7.28806140793399    1.32046841752975    6.11009350964608
H         8.10414517638597   -0.99809268549958    6.07205653185317
H         8.55420367913666   -2.11820813680343    3.92112816711770
H         8.19501883960061   -0.90695949525008    1.80383970257833
H         7.38571185043693    1.40784631663663    1.82994552580120

