115
CSD_code = FUBCAI | q = 0 | S = 0 | Stoichiometry = C45H62N2O5Ti | MND = 6
Ti        8.48753325939392    0.38870229867375   17.55082339857857
O        10.30403101304239    0.04761014224632   17.53305771706253
O         8.40337563872593   -0.44457266339558   19.22630307275265
N         6.41043324334762    0.07274349203483   17.63507209226155
N         8.40238771205840   -1.57208206331311   16.59970346996584
O         8.43661834643584    1.95285223209734   18.35044103880533
O         8.42440682049252    1.04844825550102   15.89894351873519
C        10.78558751950201   -0.99185380506770   18.13521493424934
C        11.90221387220506   -0.86004698237498   19.00328028611687
C        12.42849675117721   -1.96680288139472   19.62364122593833
H        13.25733645298957   -1.81911927251556   20.30136454184457
C        11.93252887160758   -3.26388439830302   19.41564501826837
C        10.86778452308295   -3.40311037574166   18.55362977930196
H        10.44069466243818   -4.37418729428914   18.35497065704377
C        10.26953010043791   -2.29937308546746   17.92449260705014
C        12.43419119872001    0.52298040719686   19.23741822639587
H        13.06227899555281    0.55930277393836   20.12471590767248
H        11.59719589121944    1.21632702594948   19.34471782872840
H        13.02098168755668    0.84996004472275   18.37807949192673
C        12.57560717451691   -4.42985293987112   20.15139660841031
C        14.06549038850556   -4.49967428062309   19.78880917462682
H        14.18408623988271   -4.62817431705000   18.71508933025780
H        14.53586636780863   -5.34200148579022   20.29222495704800
H        14.58800712715110   -3.59394169712283   20.08223723927862
C        12.41742270221996   -4.21191870329489   21.66303490002369
H        12.90377615342728   -3.29475364635508   21.98282715419498
H        12.85850566434364   -5.04195113229096   22.21141273699961
H        11.36323838298235   -4.14604609907390   21.92385171082531
C        11.93703155382169   -5.77458244181194   19.79345178907584
H        10.88422634257991   -5.79156309223562   20.06476807388442
H        12.43765107708294   -6.57152100268150   20.34002015121255
H        12.03558391155295   -5.98212205792946   18.73050000591799
C         9.18226456114314   -2.49707038833483   17.01223535156939
H         9.06355750919075   -3.52374975572559   16.62431219347593
C         7.45028182645488   -1.87861655419579   15.56575946301083
H         7.58710575390423   -2.91367515923246   15.20302829316876
H         7.64882499514568   -1.18562447788400   14.73848056737815
C         5.97985164054861   -1.70723534567921   16.00321158058772
C         5.71351173931249   -0.24200996136850   16.41966650194533
H         6.07851962214135    0.41027412205957   15.62073819153851
H         4.62581131013780   -0.09729874508484   16.54439237413110
C         5.08067736246118   -2.03624052482448   14.80755399611360
H         5.26229827976217   -3.05048034763418   14.45884669428980
H         5.27095875087827   -1.35143168410818   13.98435258261648
H         4.03237310453510   -1.95642301582948   15.08655158034403
C         5.67169671041839   -2.65780418095129   17.16374731162566
H         4.64894909878597   -2.51900916410530   17.50925855956994
H         6.34841028508434   -2.47187667794660   17.99823994737762
H         5.78714563146233   -3.69217916876604   16.84498184607945
C         5.72795660989842    0.23438318095413   18.71090435079001
H         4.62863302327426    0.28157377207887   18.64636378664189
C         6.28193672551127    0.26392626899976   20.02420662512316
C         5.45633157672105    0.50392619989635   21.13928576812404
H         4.42545079393270    0.75058936507259   20.94207796959554
C         5.92778988312203    0.42165545209915   22.42764863300526
C         7.28551144329532    0.09346897638669   22.59879709506381
H         7.69430294877125    0.04353853045305   23.59807198091744
C         8.12358808988701   -0.18454776288398   21.55035040350360
C         7.64271509598701   -0.11210046866550   20.21110699871720
C         5.06604768272775    0.65516648148238   23.66009339715009
C         5.15185439326681   -0.57057763411344   24.58127966315960
H         6.16347078828159   -0.73135185780936   24.94170695933979
H         4.83486972700156   -1.46325455511188   24.04646884438065
H         4.50327487828438   -0.43619084114444   25.44468975024072
C         5.58115605000105    1.89705239209998   24.40020162713547
H         6.61632099062573    1.77070850544278   24.70505129263767
H         4.98167860714260    2.08265135975663   25.28925930903410
H         5.52091940322553    2.76977609338515   23.75376134012340
C         3.59128461811607    0.87671173769521   23.31446256062954
H         3.01776068671498    0.99553397397129   24.23186154769290
H         3.18804199935809    0.02441050460325   22.77259265985826
H         3.45982388490892    1.77452605538851   22.71803211508731
C         9.56225131583487   -0.55479486899954   21.74634686804048
H         9.81356504091995   -0.62413711938002   22.80199786127972
H        10.19801845872595    0.19183113546648   21.27072743159238
H         9.77185609377870   -1.50682166505104   21.25853218737046
C         8.17155418421469    3.17993934920929   17.76820135598947
H         8.50299903216958    3.97633629443484   18.46638250867627
C         8.90058454499439    3.36954352178578   16.41425689489931
C         8.28713555675182    2.31729415633776   15.45902526599601
H         8.73267357369568    2.42629224670229   14.44470034310565
C        10.39997728931777    3.11101524583578   16.56736654986690
H        10.82204068720198    3.80843872383486   17.29003422777582
H        10.90176121765451    3.24958441201402   15.61036507576927
H        10.56641712828343    2.08970307330190   16.91195440762737
C         8.68183521203811    4.78630067596550   15.87555583686552
H         7.62548499359900    5.01813527203431   15.76354625928563
H         9.16163041786082    4.89092981973865   14.90403547404005
H         9.12036786101916    5.51182760544086   16.55812252612665
O         6.90072475360401    2.60559748527859   15.21952253822727
C         6.14517592424994    3.00665921703256   16.28478378837520
C         6.67938496950053    3.32608519090061   17.53137892618815
C         5.84030033138041    3.78579899575678   18.53360766494121
H         6.28932380462558    4.02018443704231   19.48746968062015
C         4.47871856622442    3.97611515909516   18.32617208392307
C         3.97001204775835    3.64433254443538   17.07641757707432
H         2.92099883893444    3.77300439343473   16.86211817967922
C         4.77338452321963    3.16050892463026   16.05735237210099
C         3.62405775617038    4.57641450217800   19.43319014308820
C         4.21435302280699    5.93636108153853   19.83270353001688
H         5.21564056969234    5.82759959366834   20.23831163254182
H         3.58988423666893    6.41020887616008   20.58765323300420
H         4.26622237848342    6.59150348480965   18.96585457355258
C         2.17058129005145    4.80072912362215   19.00547132257965
H         2.11355870341865    5.48584612496419   18.16312435692445
H         1.61304906718089    5.23601863957774   19.83267226525002
H         1.69026489249781    3.86310976792650   18.73572703933084
C         3.62679550655131    3.63549997602661   20.64343024414872
H         3.13202405186547    2.70217660620300   20.38256080285890
H         3.09073988236130    4.09086266449505   21.47464253439373
H         4.64036340205656    3.40899856420158   20.96291191770290
C         4.21132574868334    2.84089902969066   14.70450957503954
H         4.73292979741706    3.41742185300069   13.94254862248364
H         3.14929778954889    3.06916237930206   14.66112261948788
H         4.35877780968858    1.78796785154741   14.46872134492830

