41
CSD_code = FUBCIO | q = 0 | S = 0 | Stoichiometry = C16H21NPtS2 | MND = 4
Pt        1.10429624389359   12.28210890925051   11.33525362496349
S         3.24541342573570    9.61614857962644   11.78791606156470
S        -0.34359185018922   13.76672797451304    9.96865170248638
N        -0.50137019749745   11.68982922644673   12.67965369230685
C         1.84528045542511   10.58541075366651   12.05475970145983
C         0.96504110397382    9.90807381970925   12.90138055838947
C         1.43615267352166    8.63444691997506   13.32852050022145
H         0.88678620548848    7.98282988249723   13.98585940114213
C         2.64579731111480    8.34093504909433   12.80317739842838
H         3.24152044660455    7.46102760008798   12.94158295693998
C        -0.21488886157082   10.60590222590681   13.30346641876452
H        -0.79308666067307   10.23170001608601   14.14792050464167
C        -1.44737467746813   12.67426824316645   13.13724547169611
H        -2.26745976849420   12.71625287797471   12.40427974990586
C        -0.71822817608378   14.00726527763805   13.09726762089137
C         0.64145492068557   14.07087146354966   13.41283796255711
H         1.15714568320006   13.20412947873692   13.81524922992709
C         1.31791064149850   15.28011968050316   13.32469062261950
H         2.36813318197100   15.32194545826021   13.57206613239717
C         0.65041065230599   16.42715471417872   12.92989520296743
H         1.18169735038865   17.36524840604418   12.85633759859052
C        -0.70277540764323   16.37131783087327   12.64014574926110
H        -1.23142788312888   17.26584753985044   12.34360712443634
C        -1.37952532690364   15.16582653212605   12.71564171107846
H        -2.43089323333383   15.12250583907740   12.46821421542392
C        -2.04294797154050   12.44395105198299   14.53050615944214
H        -2.64756041013909   11.53960946986592   14.55458479339046
H        -2.67787302735924   13.28799396121406   14.78904571887905
H        -1.25115681390838   12.36715421585770   15.27340119983817
C         0.49519046579562   15.21578431586064    9.26907189252041
H         0.61106787969684   15.93216665732499   10.07639329448373
H        -0.13057054139954   15.63379918744171    8.48473086825253
H         1.46701780476456   14.93311129594469    8.87733805492130
C        -0.37191480593056   12.70951530151034    8.48804237617511
H        -0.74588959187470   11.73725995874271    8.79883227193378
H         0.63068641458220   12.60446879579009    8.08402340964915
H        -1.03967643972908   13.14877043990684    7.75029752407001
C         2.80356425801418   12.80482663871612   10.33121341141036
H         2.99477941382326   13.86779895213737   10.53746882361879
H         2.70476857040995   12.68619937557332    9.24654648061273
H         3.69849654197481   12.25079608329190   10.62388280773835

