68
CSD_code = FUBGIU | q = 1 | S = 0 | Stoichiometry = C30H33CuO3P(1+) | MND = 7
Cu        4.40334100208234    3.18397970018437    3.42393605480668
P         5.06347561269705    3.23956444517680    5.48619090294337
O         5.63771684177805    4.52304802409677    6.23246453523923
O         6.19398110918666    2.18725978629129    5.87339361051235
O         3.93007856383246    2.79496741491147    6.51749397421840
C         5.28755439026954    4.23020276217757    1.41083895305824
C         5.02662608591074    2.85011491315840    1.32843352656901
C         6.10587748002987    1.89574901428542    0.89976439953385
H         6.16465716265814    1.85067241009825   -0.18804477384918
H         5.91402680267281    0.89265037713198    1.26738216397330
H         7.07466376241533    2.20312128673246    1.28414588792478
C         3.72692721099650    2.35856758263849    1.59562517675794
C         3.40839119752688    0.92152062653052    1.28465538322361
H         2.33939160550619    0.76146926528459    1.20333908723391
H         3.79905698372619    0.24479067059119    2.04378597295778
H         3.85227458618042    0.64778846745626    0.33001417624239
C         2.71706459994572    3.25242404307013    2.02005006731987
C         1.33649317772987    2.75001486347314    2.33990356746999
H         0.71592639006869    2.73946885524156    1.44351200909251
H         0.85321847965299    3.38578831068834    3.07585716225772
H         1.36612935977664    1.74496994401528    2.75131497648117
C         2.98557493635877    4.63471341510918    2.08929283920985
C         4.27986673615455    5.11274239524041    1.83498178416155
C         4.59696961430463    6.57143237726744    2.00153546329253
H         5.64162977105380    6.71405337283917    2.26071726412951
H         4.00261314877911    7.01211627047306    2.79680084467037
H         4.40014341720494    7.11802771689990    1.07914190716626
C         1.85266947909460    5.58501393047750    2.35219706876793
H         0.96756166906447    5.26579613288843    1.80736473296455
H         2.09592509289393    6.58839894746539    2.02167473540620
H         1.60027362260379    5.62449139093135    3.41159889784419
C         6.61194671468892    4.78502364949456    0.97017138544007
H         7.25666361921027    5.00260608739908    1.82172054394926
H         6.46238998078823    5.70933667899786    0.41804548974863
H         7.13191055680047    4.09387117615501    0.31647895170185
C         5.10852084531006    5.79630015362321    6.09377000334932
C         5.90821262573782    6.86413626698996    6.47447862120409
H         6.89542513728605    6.67051148750701    6.86223563709134
C         5.41840332310307    8.15310297041223    6.36078332739529
H         6.03540943937734    8.98490201939247    6.66145004845141
C         4.14294291040783    8.37611420550687    5.86760448909855
H         3.76325804667295    9.38201228379215    5.78432694869937
C         3.35166326006479    7.30482704946302    5.49074722665478
H         2.35215093920020    7.47601472956702    5.12075737338060
C         3.83280980677089    6.00987334162147    5.60019616904858
H         3.22220178076332    5.15836429104091    5.32640120600269
C         7.30701352969062    1.95076187787384    5.08283787424838
C         7.97595434301712    0.74840249088964    5.26010177687226
H         7.61944151508357    0.05215516027855    6.00211607490431
C         9.09290990776866    0.47376229439782    4.49101093720180
H         9.61890169754997   -0.45727955240470    4.63084071954010
C         9.53627935173041    1.38820440232638    3.54901968417159
H        10.40947141596409    1.17159380290783    2.95440760326859
C         8.86429554007339    2.58635872480532    3.38014810015020
H         9.21938749741858    3.30835367188493    2.66040879555120
C         7.74409872930710    2.87098348522065    4.14500726796600
H         7.22005472267041    3.81332352401208    4.04543268062917
C         2.94016762772854    1.89238510981437    6.16867396865638
C         3.11962779213608    0.96475482666253    5.15415234338159
H         4.07527675947220    0.90368405753040    4.64719704338164
C         2.09331677183595    0.08416696013821    4.84602923067521
H         2.23667647722302   -0.65324569459714    4.07090427917323
C         0.89789135677598    0.13512850946428    5.54108909789130
H         0.10462594541937   -0.55487463885016    5.30100075155360
C         0.72834408710791    1.06317277079553    6.55636120545692
H        -0.19760945442399    1.09841207407921    7.10810307476260
C         1.74467735917453    1.94716294830382    6.87165001075220
H         1.63318814884161    2.67201809078433    7.66207770706962

