114
CSD_code = FUBPIB | q = 0 | S = 0 | Stoichiometry = C56H45B8OP3Ru | MND = 6
Ru        2.89905154476544    8.69347005739315   12.74177308021583
B         3.91219194765650   10.89571605816548   10.33582249761451
B         5.31352989363919   11.25914310349553   10.85793402861207
B         3.91287082875520    8.18799544298537   10.79686750615298
B         3.18429622002656    9.62552608151092   10.76675704047440
B         5.73976120605390   10.95715862363184   12.41521205352096
C         6.32920383128554   10.12647063870759   11.24204545240701
B         6.50851808503738    8.80809771848162   10.74770109011186
B         5.36474836365842    7.83005718346710   10.55968294446562
B         4.32143539188802   10.19186532250892   12.00413925105070
P         0.67098391692521    8.13372011523485   12.63735324621522
P         3.74903112130388    6.81493105625411   13.82289625564830
P         6.49083224924548   11.71843402213382   13.92215238424511
C         2.59085980298207    9.85477732299817   14.12666825012392
O         2.42963080987030   10.68603866042598   14.93424125836227
C        -0.10186228437729    7.25704871133654   14.05661058138685
C        -0.73698656436993    6.02238222080268   13.97770443409885
C        -1.23553160507131    5.42033357184182   15.12043301860789
C        -1.11768424111802    6.04539466904023   16.34902277290043
C        -0.48724721413781    7.27668584342965   16.43676530553888
C         0.02874373366469    7.86902479170693   15.30228166090758
C        -0.04894548151306    7.18332918809035   11.23262195863735
C         0.81444441234479    6.50522274811968   10.38239746462024
C         0.32348004750458    5.75473570697025    9.32967636553493
C        -1.04174399917434    5.68560701954226    9.11043172854486
C        -1.91005750742865    6.37198650425111    9.94520355011278
C        -1.41996668605382    7.11674308686294   11.00181406484271
C        -0.47740830097608    9.57946873418000   12.57151165284608
C        -0.08905789745710   10.65149794189634   11.77537790875269
C        -0.89366441993979   11.76716288611240   11.64646206301996
C        -2.10058875665238   11.83067653346547   12.32397387471678
C        -2.49416318455157   10.77101294954950   13.12279454042039
C        -1.69299405486835    9.64873376503138   13.24443347122379
C         3.01181448305162    6.36741808027635   15.44838726959944
C         2.45178116298558    5.14419863772582   15.79505761427878
C         1.97170634954103    4.93879825239422   17.07712120907254
C         2.05952173992556    5.93951210835723   18.02845644169631
C         2.62477477294587    7.15930746479034   17.69214909171643
C         3.08944635505412    7.37117315660528   16.41016190056251
C         5.50151494771612    6.59131919304131   14.35980470262759
C         6.47753355029138    7.42780744293815   13.83932442826279
C         7.81639138507784    7.20060546918589   14.10860182063489
C         8.18678288498866    6.16084866904143   14.94309191954627
C         7.21328179376345    5.34742440574654   15.50253513600915
C         5.87923809824615    5.55113007054216   15.20401662713262
C         3.58604312273155    5.23599055127598   12.89953057602159
C         2.30078425303352    4.76173246596980   12.64523330890143
C         2.09760585457433    3.64487753538991   11.85971900461755
C         3.18159618936176    2.99258416912996   11.29301727360993
C         4.46210371847943    3.47151418326477   11.51645747098890
C         4.66647192286744    4.58572551885169   12.31020426649837
C         8.27928496275824   12.03096881917334   13.82835484719015
C         9.03321103636883   12.29751914430562   14.96996779368154
C        10.38847201553757   12.54767866839869   14.86127836169139
C        11.00257709724469   12.53503164416413   13.61863637998816
C        10.25770245802173   12.26702098001087   12.48078013067339
C         8.90167852971619   12.01743688979717   12.58471304284028
C         6.28112454761348   10.83539697639222   15.50847873095929
C         5.16062739255139   11.05280284235015   16.30522221474300
C         4.93754084444294   10.26109187235267   17.41647081426069
C         5.81735926013537    9.23995167897245   17.73718888556591
C         6.93380873198321    9.01838866302529   16.94664029198760
C         7.16165640748405    9.80689008065601   15.83650279961930
C         5.72723610813982   13.34874918744114   14.24737412686170
C         6.45414405331523   14.46775212652066   14.63847239002794
C         5.81518609166756   15.68290553699486   14.81384960866086
C         4.45080501725419   15.79125621338540   14.60489729363234
C         3.72248143836666   14.68113590820436   14.20399015923882
C         4.35814073068805   13.46980077776912   14.01318247205081
H        -0.85813071906937    5.53095306415661   13.02147768509821
H        -1.72570616353482    4.45959365028267   15.04675508467814
H        -1.51612262639736    5.57596498789287   17.23665725402025
H        -0.39607018811485    7.77139157579626   17.39270718017935
H         0.53003250902445    8.82613469698032   15.36593361615136
H         1.88381159449823    6.57502855828522   10.55513134086530
H         1.00619662432522    5.22418786574909    8.68140685076808
H        -1.43143093573241    5.10188126242589    8.28886997824458
H        -2.97591176944887    6.32395368836112    9.77190827783498
H        -2.10318907859629    7.64687906259149   11.65030395167986
H         0.87037350914817   10.59904581342025   11.26814200249619
H        -0.57913682867967   12.59142001362654   11.02199363377342
H        -2.73058152077604   12.70389974507763   12.23365023683584
H        -3.43318353620890   10.81624063915022   13.65659651658796
H        -2.01666025442373    8.83291831262558   13.87616707801171
H         2.39317210354447    4.34277191042444   15.07236383746490
H         1.53267662690937    3.98520237729395   17.33493478539675
H         1.68856165309418    5.76933498639896   19.02905438257530
H         2.69776018984947    7.94503632312197   18.43060255589864
H         3.52522641209081    8.32370335093279   16.13308482353872
H         6.16988746024104    8.24800151530068   13.20390265153467
H         8.57263660817933    7.83145048195054   13.66164061678744
H         9.23057708552526    5.98155263476782   15.15887644205190
H         7.49895675347670    4.53964109719624   16.16153570159053
H         5.12747430233054    4.89444586571897   15.61906730014098
H         1.45762156250436    5.29147245616022   13.06937490875409
H         1.09329783264253    3.28787103441616   11.67937068474621
H         3.02801896832142    2.12146983540876   10.67286236465317
H         5.30954452063421    2.97355027320494   11.06640763385980
H         5.67043988248906    4.95402452557382   12.46787811933387
H         8.55460160479237   12.29968376826615   15.94006783897628
H        10.96900397518107   12.75427069784240   15.74873897168976
H        12.06137172379847   12.73168101936506   13.53838336195271
H        10.73664686150562   12.25267462362034   11.51271324637206
H         8.31800083067989   11.79776682190077   11.70164041062866
H         4.46625674399193   11.84263754089240   16.05987413632829
H         4.06623472195931   10.43980761640754   18.02930037725557
H         5.63297012086312    8.61412133246677   18.59758627304560
H         7.62256761305770    8.22293812311531   17.19070461542395
H         8.03565684560891    9.63909397173935   15.22306096633722
H         7.51926637259087   14.39176021824155   14.80607804459164
H         6.38622758753599   16.54834156971936   15.11765819697973
H         3.95592743854762   16.74014246043180   14.74925163323313
H         2.65840598080381   14.76050707153570   14.03838934091578
H         3.79597848441760   12.60515789608622   13.68546192938530

