114
CSD_code = FUBPOH | q = 0 | S = 0 | Stoichiometry = C56H45B8OOsP3 | MND = 6
Os        2.45903732264778    8.65610907382587   13.02274384321379
B         3.22574288272540   11.67433651624245   12.58840480198119
B         4.80736767135718   11.28001198770987   11.90509950664649
B         3.39160763085081   11.68423759060407   11.03978677486361
B         3.00207367648099   10.12249628311136   11.74305362357012
B         5.20281053153486   10.76314000672438   13.59952395266608
C         5.82697933768026   10.12201489514813   12.38547074807991
B         5.43587618082755    9.86848276579680   11.04162850297637
B         4.09433465424029   10.42586910655866   10.44687854656002
B         3.52410478091682   10.75082854927479   13.85653154303208
P         0.56197045940690    7.96091927317098   12.00678696922476
P         3.16841084775818    6.81629636079030   14.35663596782115
P         6.37184582325594   11.81447932652380   14.66316167117111
C         2.52837961487814    9.90338705829067   14.61823347771006
O         1.87612045948954    9.80783912488049   15.62831890232158
C        -0.66626072269854    7.26268595237891   13.18037245122524
C        -1.48564860830740    6.16849658428589   12.93111425463083
C        -2.35274473225532    5.71362685472338   13.91035556657011
C        -2.40652824182796    6.33712011381735   15.14549499552267
C        -1.58566371190589    7.42430924914345   15.40478636190210
C        -0.72025518534307    7.88081670267449   14.42905478122599
C        -0.48868401008654    9.19903253052940   11.14224605343438
C        -1.67822541299442    9.69905372575712   11.65778393238946
C        -2.36923275173005   10.68978274205975   10.98080789620941
C        -1.88098730490366   11.19179523909762    9.78711756979457
C        -0.68806535786329   10.70525641275440    9.27166901325510
C         0.00553445819539    9.72332696807507    9.94892192540814
C         0.58585257185335    6.66079006779840   10.70148960588927
C         1.71136069205071    5.84968925264157   10.63417335396884
C         1.78708375709194    4.82078877635421    9.71422901639437
C         0.73491439055892    4.60138498192730    8.84069195599014
C        -0.38338785585296    5.41887488700074    8.88563297541119
C        -0.46013433458636    6.44526086466817    9.80967227804254
C         4.92595004097583    6.51636602166713   13.93579603936263
C         5.36544125806744    6.92490837582320   12.68072583223876
C         6.67843048289474    6.72720373982607   12.29538118449312
C         7.56597449125292    6.11027109611055   13.16241097332413
C         7.13122386457871    5.68440130828606   14.40772958277786
C         5.81860811108121    5.88358487894034   14.79598793523456
C         2.48520087030967    5.13850884088923   14.06198470214363
C         3.15256519115934    4.17967289196527   13.30492060080325
C         2.53273710465684    2.98704606767326   12.98060379685495
C         1.23910297872914    2.73368325360606   13.40314860299391
C         0.56369680784523    3.68380081476933   14.15238515962800
C         1.17675744135989    4.88000106886595   14.46825595809640
C         3.33745348213616    6.84012294401347   16.18580147692660
C         2.78836426297634    5.91484249671871   17.06525078173044
C         2.93816228469186    6.08149189120029   18.43110076727778
C         3.62981209739945    7.17006284131305   18.93431377277881
C         4.18244768029862    8.09667746001346   18.06398534450472
C         4.03178503503166    7.93310429134268   16.70254315583365
C         7.92189642925550   12.41254494033181   13.92765331925465
C         7.82582771895057   13.31401553241869   12.86388237622410
C         8.95583955240623   13.71349708815296   12.18098077829621
C        10.19653202174162   13.19746814044702   12.52946484198669
C        10.29518600633976   12.27707931687863   13.56195306388517
C         9.16723085340787   11.87835162203128   14.25327780776301
C         5.63207361888123   13.23086427147031   15.50605155351391
C         4.40901505027593   13.00942043004464   16.14776993558586
C         3.74712655615990   14.05574227150430   16.75876741169143
C         4.29238986916282   15.33031347498895   16.74328074584579
C         5.50670609925286   15.55437564151268   16.10865328647742
C         6.17329872299366   14.51538342048716   15.49009799806408
C         6.93434240588015   10.73023712328713   16.02549152808449
C         7.08494354401362    9.36981248524323   15.77622383788620
C         7.47831196388313    8.51590893367591   16.78968887430132
C         7.70944540001749    9.01253503125349   18.06279478582994
C         7.55523412991120   10.36555768249402   18.31796413040769
C         7.17119545647740   11.22443720781963   17.30343782161820
H         4.66474482680704    7.41641496700775   12.01074691010250
H         7.01044485906908    7.05931270506542   11.32294944056218
H         8.59436910116755    5.95763371861656   12.86871840954025
H         7.82044085808381    5.18922143610334   15.07798970947698
H         5.48380749742109    5.54856730375888   15.76805394249624
H         4.16292833889066    4.36392997911530   12.96707387965699
H         3.06343494701511    2.25068505766271   12.39367489932486
H         0.75744707961132    1.80145542580795   13.14686432866804
H        -0.44706094149237    3.49632523816875   14.48450098336196
H         0.63929862758165    5.62762296687112   15.03525231508672
H         2.25593649861318    5.05336215754208   16.68828031928999
H         2.51066959540361    5.35359610482407   19.10658329156146
H         3.73699961243131    7.29708683184511   20.00186716062009
H         4.72637515692655    8.94822932855846   18.44718431926651
H         4.46629798033836    8.65588560958853   16.02261834527113
H        -1.44434075879012    5.66372906221036   11.97724609853664
H        -2.98935321333787    4.86366035859401   13.70714596608434
H        -3.08265974120409    5.97425448302504   15.90643739262829
H        -1.61520349597594    7.91025787464400   16.36925375856947
H        -0.06801516119795    8.72089244775670   14.62869562708564
H        -2.06843712132860    9.31042870537211   12.58722384989103
H        -3.29554283114007   11.06999787630973   11.38740966730009
H        -2.42517437529432   11.96201918513649    9.26037750553725
H        -0.30313053763096   11.09737998133824    8.34142648962178
H         0.94275289152032    9.34259957088190    9.56595422608637
H         2.52868177782919    6.03952724732145   11.31964565881889
H         2.66353699523166    4.19030813932176    9.67707476650473
H         0.78635087972545    3.79743221339918    8.12084576569491
H        -1.20099367803714    5.25183390971389    8.19874544026998
H        -1.33191936755999    7.08434502150350    9.84206230989584
H         6.85291087292999   13.70145740686356   12.58691871106640
H         8.87435158855772   14.42225736050210   11.36963424306877
H        11.08071113882900   13.50557292648539   11.99212305849922
H        11.25907164096649   11.86850258410021   13.82890090249173
H         9.24919944934729   11.16094879731350   15.05774136444085
H         3.98335586409990   12.01646457947623   16.15729811238115
H         2.80267769430274   13.87668870442016   17.25044618259057
H         3.77745173321555   16.14733161970171   17.22594033684082
H         5.93644418827040   16.54573893052634   16.10081414530122
H         7.12226382680102   14.69471756916992   15.00433970211163
H         6.88985291340733    8.98580146492637   14.78336008637202
H         7.59449182566454    7.46198337689326   16.58777124355650
H         8.00461054068973    8.34379555388921   18.85788967382684
H         7.73162307414854   10.75269805487295   19.31118816178968
H         7.05199894968898   12.28151144221017   17.49899871607919

