61
CSD_code = FUBPEX | q = 0 | S = 0 | Stoichiometry = C33H26ORu | MND = 10
Ru        4.99449875564600    2.66737439759764    3.14086890029180
C         4.25822916019741    4.22030143638742    4.47755387024193
C         3.22048922535590    3.97129610602224    3.49096345775568
C         2.81753186016467    2.63148103402517    3.13925295289451
C         3.26875430252972    1.53209751794689    3.93293645881857
C         3.74012552734932    6.62427812184661    5.03216755910006
C         4.16672672008250    7.88840188471176    5.39486945674097
C         5.51750874990220    8.15711646374569    5.54164400834385
C         6.44554933213253    7.14680222426753    5.35041767319288
C         6.02382349914132    5.88005998325044    4.99538220869342
C         4.67026417076139    5.61361768649517    4.80540247161234
C         1.27979707410399    5.30430108351688    2.69524641519339
C         0.74240128828073    6.36515825099585    1.99126975988925
C         1.57054687769455    7.24370202985724    1.31331477796672
C         2.94241869690551    7.05523625333951    1.34179942388977
C         3.48346901700494    5.99598705937817    2.04432257775425
C         2.65890492891162    5.10869943735759    2.73307704374660
C         2.21040624607426    2.95940296978757    0.72478109670568
C         1.32666716523848    2.80052328291728   -0.32541626295683
C         0.12847331890072    2.13324939367259   -0.13180410689875
C        -0.17863191673202    1.61917070468015    1.11676952365786
C         0.70459192237083    1.77325375425716    2.16868967585783
C         1.90898133831656    2.44785093940065    1.98421457212156
C         2.88683076393429   -0.82107027946674    4.54861344811918
C         2.70222475869262   -2.15382210956808    4.23810374310018
C         2.69581247755521   -2.56713941137531    2.91626024198123
C         2.88650908074659   -1.63256546346269    1.91111887005774
C         3.07087121005517   -0.29961841222748    2.21878946853749
C         3.06360032358135    0.13839439406433    3.54666962060119
C         6.17313375827934    3.16669630349101    1.27635705399457
C         5.77030025863369    1.80316776034533    1.22393324451697
C         6.40090160156274    1.11419541650738    2.30373678845173
C         7.15502343047132    2.05880625735311    3.03477876965246
C         7.01795756392501    3.32947230851527    2.40185981456118
O         4.79897207999693    3.27832265152387    5.14980440622448
H         3.27718637470336    1.67538156794285    5.01793192511364
H         2.68451621116532    6.41760709177657    4.94027632576975
H         3.43871863120264    8.66736072677525    5.56741647655972
H         5.84524001289251    9.14836060511801    5.81820958296309
H         7.49891681550508    7.34602740371387    5.48393981330963
H         6.73599329646402    5.07720097716938    4.86307127532100
H         0.63216898943141    4.62320463292787    3.22834401620995
H        -0.32826502401801    6.50616416509253    1.97192532195661
H         1.14851335440497    8.07103713529527    0.76251810068231
H         3.59315536412797    7.73452072458740    0.81068188611693
H         4.55463667641921    5.84298148107398    2.05692789161600
H         3.15180569093783    3.47024041968371    0.57025366864756
H         1.57330726893601    3.19872860252110   -1.29888683258106
H        -0.56247718797976    2.01196773164321   -0.95286257273913
H        -1.11062350238258    1.09580853504064    1.27196306720448
H         0.46549286275011    1.37282362437571    3.14330926518590
H         2.89277662939431   -0.50840049020670    5.58347013065330
H         2.56320291356169   -2.87533451768801    5.03048168132239
H         2.55082030448278   -3.60897787849597    2.67136872733418
H         2.89404383116234   -1.94740939899992    0.87721460501469
H         3.23197443929494    0.41052932222563    1.42178079199186
H         5.97817847347003    3.91153163989484    0.51698521408406
H         5.25201414138006    1.33298796527169    0.39827908293738
H         6.38558767789533    0.04500975394962    2.46326161961706
H         7.81297403856395    1.83768385491964    3.86489250874768
H         7.58137714846881    4.21966289323620    2.64489744254635

