39
CSD_code = FUBRUQ | q = 0 | S = 0 | Stoichiometry = C16H14I4N4Pt | MND = 6
Pt       -1.46656386237489   -2.78215019135947   -2.11490594572627
I        -2.88691217087078   -0.59535264016964   -1.76859989984453
I         0.66882117069771   -1.87566494485400   -0.66881005048390
I         0.87303185982293   -4.74097445078037    1.26044414440788
I         0.97332558275000   -7.06836501748752    2.63342375008272
C         0.32998207328599   -1.20464739193171   -4.50178591475902
H         1.13626575542956   -1.01928856754696   -3.80612490607659
C         0.35214016589422   -0.66854896346689   -5.78811203521380
H         1.19869704008880   -0.06864995977914   -6.08050697898976
C        -0.69438561898940   -0.87821919968159   -6.66959132477345
H        -0.68881603665073   -0.44654622648190   -7.65872515055214
C        -1.76225994019063   -1.65204414682450   -6.22434875837952
C        -3.02492980908882   -2.09361133274418   -6.71486596173127
H        -3.43569015037286   -1.89184709341602   -7.68343851904914
C        -3.61733781583631   -2.80355498866312   -5.71638757868464
H        -4.57902315698050   -3.27903628572223   -5.69785243534516
C        -1.67246299622892   -2.15485020217731   -4.90410782619514
C         0.71055811536850   -5.10924934274670   -2.37766274284281
H         1.45289751542864   -4.49235512344028   -1.89373937794056
C         1.00979534824416   -6.41844761545066   -2.75221780493396
H         1.99695282374581   -6.79397255205992   -2.53661016138922
C         0.07299871393433   -7.23132953657456   -3.36876128830404
H         0.30633352027066   -8.25082658797402   -3.63373087958770
C        -1.17756457401176   -6.67877482355389   -3.63248529906983
C        -2.41675227080294   -7.06244273877471   -4.22363565418838
H        -2.64794762857438   -8.01951976085383   -4.64570559614690
C        -3.25129831939965   -5.98654123784496   -4.14949242286815
H        -4.26502781899379   -5.88938192949013   -4.48652640858881
C        -1.36955603805578   -5.33852622681137   -3.21793213951330
C        -2.37152445087479   -3.67352488867121   -0.47116944655378
H        -3.45833709890829   -3.65699185321520   -0.55850910944547
H        -2.08994302176905   -3.13140634146496    0.43166546212212
H        -2.03420416076691   -4.70889869017596   -0.38727548872103
C        -2.97826401401917   -3.54327920716761   -3.36157020546386
H        -4.03260918884384   -3.47031450606515   -3.05742503653049
N        -0.67194753642790   -1.94810860341821   -4.05403542409833
N        -2.80152854415341   -2.84548795156576   -4.60882954885624
N        -0.48407490538383   -4.57205146037103   -2.58888564412229
N        -2.61873855638058   -4.93671741921522   -3.52517039163599

