69
CSD_code = FUBVUU | q = 0 | S = 0 | Stoichiometry = C26H37Cl2N2PPd | MND = 4
Pd       16.49541656972022    8.65953381799974    1.75189642135161
P        17.68789266969236    6.78164194224027    1.77131895445652
N        15.35224355051001   10.45653094573110    1.90597071894328
C        17.25742573105607    5.70036730922749    3.16617239615302
C        17.47669680864837    3.62416266606034    4.35015725721176
H        17.92928743976447    2.64888998626387    4.45469891872817
C        17.54576499572735    5.61283572997804    0.38103820957185
C        16.30233797039506    5.00893212325002    0.21343689164128
H        15.50636927951738    5.23730693751009    0.91197366663435
C        19.49812492096685    8.52229988685161   -0.06300210204368
H        18.38812484376168    8.41320536728927   -0.09061456875740
C        19.44827177870648    7.11970431713971    1.95141587527266
C        16.30137883115492    6.12071052362958    4.08267518469224
H        15.85551177805328    7.10798998714942    3.97108264748067
C        17.83633321537568    4.44103678338424    3.29530749635167
H        18.55879098584285    4.10657388814055    2.56296260856974
C        17.19302565557278   11.61607606673667    0.78865759139037
H        17.82344793160634   12.50187649127848    0.81016824766690
H        16.69297956956275   11.56414230023860   -0.17937167631078
H        17.83400353320473   10.72942182232155    0.91990233049593
C        16.53290457023661    4.05260118516897    5.27152171763682
H        16.25504254787780    3.41019728618421    6.09406627345337
C        20.10780161702271    7.93117614208922    1.10251983902109
C        16.16956324804903   11.66866245308043    1.91580395705650
H        16.68919724957978   11.71679012170710    2.87872770217654
H        15.53515918491624   12.56309174852898    1.81502225547979
C        18.56853351782927    5.35119427441986   -0.52090701222393
H        19.53255045037169    5.82611241769179   -0.40231864252480
C        13.55710312270403    9.13232562309373    2.93097051969125
H        12.94278404939761    9.02176422449609    3.82106733434787
H        14.19372436656624    8.23907665906054    2.82445036714919
H        12.90596737828542    9.18937746239255    2.05951220232361
C        20.34026580794175    6.63824024024998    3.06014432363122
H        19.84999223374816    6.70535455777134    4.03205083942957
H        20.61655298275834    5.59235489905212    2.89506628741145
C        14.42543255508929   10.38189607619786    3.03688789934371
H        13.78760621858154   11.27958227722786    3.06885856204463
H        15.02242465990254   10.34950549009062    3.95677028833024
C        15.94260659514684    5.29791788472864    5.13599653309445
H        15.20308988017654    5.62687966856756    5.85108112034933
C        21.54668245522299    8.08670060334856    1.50162729645680
H        21.87556403757847    9.12077043264262    1.41650547662071
H        22.17660057606503    7.48321947439057    0.84292806774010
C        17.11088206102408    3.88272384873223   -1.73966934951480
H        16.94193345513567    3.21293411143056   -2.56995033163919
C        18.34755349287781    4.48341134933277   -1.57683351102866
H        19.14416986144215    4.28105500866356   -2.27826718843538
C        16.08685392733553    4.14632932214754   -0.84291609064918
H        15.11919055838065    3.68546588077874   -0.97486670923680
C        21.56118379901612    7.56740544263888    2.94821290990199
H        22.48989154545862    7.05824402945447    3.19979871477995
H        21.43136188939090    8.40562434771141    3.63288956028297
N        20.18329392245098    9.06900394706802   -0.96630158213936
C        19.63277753047877    9.62925871146105   -2.17384191498354
C        18.14900837864008    9.34389901618560   -2.42700281542388
H        17.51796916905824    9.75972215108940   -1.64384963842100
H        17.96530894876252    8.27181179871026   -2.47946868000034
H        17.85200413394510    9.78897866936837   -3.37306221979688
C        20.47185387904156    9.04004891564628   -3.31700384948293
H        20.29285332138425    7.97024568925517   -3.39808514551513
H        21.52800064929974    9.20004962710130   -3.11820756623101
H        20.20977416081656    9.51201556788291   -4.26023995494731
Cl       15.28184247147651    8.16150162062343   -0.12057589466732
Cl       17.72869130369268    9.18309562416506    3.61297524885457
C        19.87539607359814   11.14325191885929   -2.09437705325130
H        19.29036124629626   11.57539088009682   -1.28623332213872
H        19.59005424694436   11.61752763127938   -3.02980347939202
H        20.92730958966141   11.33807858428567   -1.90298486511202
H        14.80830302050452   10.42679621141854    1.03456445064838

