73
CSD_code = FUBWUU | q = 0 | S = 0 | Stoichiometry = C38H30N4Pt | MND = 4
Pt        6.35322975842783    1.50766029872123   -0.00000646105684
N         8.06059997416269    0.45715331880830   -0.31755467398086
C         8.60127150439581   -0.31054705526155   -1.33447166292984
C         8.16290696018127   -0.03755406650812   -2.63405851155118
C         8.62518673605902   -0.77501410079274   -3.70274511163018
C         9.53781779556141   -1.79858625978491   -3.49844133906495
C         9.97917425912201   -2.07398789818429   -2.21559661271757
C         9.51800756569394   -1.34363437992050   -1.13589956111125
C         8.66533141739426    0.94933749532519    0.75872390752373
C        10.07531867951077    0.71960647407903    1.14957212726891
C        10.42726869954157   -0.34846985540178    1.96958605875452
C        11.74826540636579   -0.53931134154925    2.33081010155040
C        12.72485596393807    0.33251769896425    1.87781788372979
C        12.37798753115755    1.39688107720432    1.06398939205803
C        11.05735863650390    1.59293342700839    0.70002873243799
N         7.83206279937953    1.79260025221880    1.35967849803758
C         8.09278847079176    2.62721929870606    2.43308690905669
C         8.85122851430577    2.25320108530480    3.54311917918240
C         9.03789675015651    3.14433948292912    4.58342321602851
C         8.47501143803153    4.40840781600052    4.54256379240972
C         7.71603596783857    4.78454708359220    3.44495445637219
C         7.52634148933725    3.90507751908629    2.40060592511191
H         7.45567211580997    0.76868786773132   -2.77723266965478
H         8.27175170134165   -0.55319757251299   -4.69899986458229
H         9.89991465292601   -2.37928639221499   -4.33352631197796
H        10.68724926185447   -2.87295807652326   -2.04848574468029
H         9.85826955247884   -1.58433883002073   -0.14129404401125
H         9.66116742055924   -1.02406744397226    2.32564471652409
H        12.01613151844982   -1.36926451169502    2.96811682858801
H        13.75571415786408    0.18154855825611    2.16154656144187
H        13.13753434995871    2.07834997056399    0.71102608864617
H        10.78053845705625    2.42245112905443    0.06619234300740
H         9.27905568867232    1.26457457995319    3.59902785928783
H         9.62490251569347    2.84240168506693    5.43891985505855
H         8.62304384072753    5.09471614482183    5.36281865171360
H         7.26947030061346    5.76720540759321    3.40540979930491
H         6.93923755789829    4.18400769208214    1.53579686601789
N         4.64593278055641    2.55828710794252    0.31757359124425
N         4.87440568843916    1.22291900750186   -1.35972579935659
C         4.10527940397111    3.32590989804117    1.33456610755191
C         4.04115907665555    2.06617230894231   -0.75871290022079
C         4.61367755695641    0.38840962759908   -2.43319939348135
C         4.54370153777790    3.05284795885117    2.63412096960464
C         3.18846311464249    4.35895007296934    1.13610282115524
C         2.63116931450106    2.29592460128347   -1.14952711918074
C         3.85528107141082    0.76254945145710   -3.54321966041403
C         5.18009221818505   -0.88946323303213   -2.40081753047159
C         4.08141802437420    3.79021083066448    3.70287577654958
H         5.25096187474496    2.24661074046583    2.77722000942621
C         2.72728738260685    5.08919949862018    2.21586862094652
H         2.84815233950730    4.59971491533959    0.14152297936715
C         2.27919823306260    3.36404848659639   -1.96946570419968
C         1.64914839335577    1.42253506607945   -0.70006590138836
C         3.66861884003151   -0.12849411870961   -4.58360462225438
H         3.42748710203425    1.75119385743843   -3.59905402404159
C         4.99041768045249   -1.76883233911547   -3.44525128129414
H         5.76718215740025   -1.16847017112245   -1.53602142551262
C         3.16872175594936    4.81374364985712    3.49867405464791
H         4.43485509900375    3.56831189430366    4.69911644214310
H         2.01916723484221    5.88815508470288    2.04883386844654
C         0.95820226184359    3.55488278648768   -2.33069254542342
H         3.04528687344806    4.03968333358945   -2.32547602216981
C         0.32852085090917    1.61858112030926   -1.06402992666405
H         1.92598743906746    0.59297054154782   -0.06630463097134
C         4.23148296632973   -1.39257586449346   -4.54285027544834
H         3.08165961960529    0.17354026992015   -5.43909757505673
H         5.43698113072971   -2.75149545791861   -3.40579753648470
H         2.80661048270160    5.39435906069905    4.33381869807984
C        -0.01837093136135    2.68300006610821   -1.87777201982426
H         0.69031808458992    4.38487998243984   -2.96793231751510
H        -0.43101068937251    0.93706330269517   -0.71113940048900
H         4.08348377789683   -2.07879367283517   -5.36318651003461
H        -1.04922915661592    2.83396275603041   -2.16149699742239

