44
CSD_code = FUCCAH | q = 0 | S = 0 | Stoichiometry = C13H27ClCrP2 | MND = 8
Cr        6.18422120620946    2.78667591980722   14.12447664362885
Cl        5.00867398269984    4.24783195146517   15.43242035933039
P         4.12175165548314    1.66160669904665   14.08120282760296
P         6.59473151429372    1.30998640603304   15.80750136601100
C         8.21079575277614    3.48503292902732   14.20082438818396
C         7.43952270332339    4.46808067529304   13.53443104952436
C         6.65851427136884    4.18338679459217   12.39415863857585
C         6.31096512292210    2.90499887551799   11.93363570379712
C         6.90885462974474    1.71062050228764   12.44478548362848
C         7.41100392580872    5.87490766131625   14.06789008594936
C         5.25354136138373    2.82606842562345   10.86055147234245
C         2.54007482628238    2.56106676849761   13.86401941485206
C         3.74322377865782    0.12871182945411   13.12717282495477
C         3.88218236108918    1.00191181385476   15.79777521557590
C         5.13347350690242    0.23040138274929   16.19180237845164
C         7.94068896379417    0.06810993211411   15.73307181961198
C         6.91363311122534    2.06340312173862   17.44823926893379
H         8.89679160424850    2.88004280292692   13.61773725478828
H         8.69512651492053    3.84192341511618   15.11034584109342
H         6.16268382583986    5.02862755088670   11.91958158723456
H         6.46518499278416    0.80159551572870   12.04012309477882
H         7.98919339254476    1.63617955151662   12.38952787848816
H         8.25004919260894    6.44096593501785   13.65626735255023
H         6.48697565839866    6.38921340535009   13.80710735495660
H         7.50431463422087    5.87150558354814   15.15326902760933
H         5.72469124754510    2.94416786463337    9.88168017554701
H         4.75887537977790    1.85694325765161   10.87289333910658
H         4.50213490952673    3.60877770157124   10.96818668014363
H         1.69377608352820    1.93085511296429   14.13910154159030
H         2.44570292219261    2.86868295721170   12.82288277753084
H         2.57183525966814    3.44746554438968   14.49503175023395
H         3.56921477734543    0.38515449714400   12.08462397570132
H         4.59034040473009   -0.55118792210708   13.18127589433815
H         2.85409571787572   -0.35740003227813   13.52764923134252
H         2.98142398641778    0.38293120685273   15.85654839142290
H         3.75903469104898    1.87646666854427   16.44344702690935
H         5.22050786248833   -0.67844603384384   15.58959429876282
H         5.12579088140064   -0.04784320683374   17.25004965910016
H         8.89436244654827    0.59242364044635   15.71023811423290
H         7.90340908484917   -0.59527886676385   16.59716463020473
H         7.83524359103236   -0.50812123951217   14.81631740661247
H         7.84272757810099    2.62960657395023   17.39432580868925
H         6.10028262530937    2.75532543183315   17.66565477100205
H         6.98727806109956    1.30422139567110   18.22761619513567

