30
CSD_code = FUCGAL | q = 1 | S = 0 | Stoichiometry = C9H13NO5PW(1+) | MND = 6
C         6.85257271838044    5.40512949039708    5.93879504684437
C         7.42404982903996    6.60706992626750    5.38363919925537
C         6.73380608205477    7.74826015461884    5.30296398783687
C        10.40960582175265    2.10871740251243    8.28725453248473
C         8.97423401824362    4.46050365923523    9.00506394590946
C         8.24880615977686    1.93948128349208   10.12643477128919
C         8.57114835167378    1.73287571122110    5.46284958978931
C         5.59419147575407    2.95862741625003    7.91902806809540
C         5.74708667300555    2.10352939838284    5.18558225558335
O         7.46804826768542    4.34551691276375    6.02323177665138
O         9.40098926944921    1.41254001848634    4.76561946323218
O         4.75982473802324    3.30170282306943    8.60623643599871
O         5.00317395440478    1.98606832138054    4.34095704719111
O         6.64537200418701   -0.49206707542476    7.61177621302496
N         6.79958750357153    0.59690812111709    7.24978565330587
P         8.70792588414739    2.71361006516705    8.54031690450587
W         7.06563165618575    2.28351548982694    6.70776557745387
H         5.80829836103973    5.48142468208865    6.29741805904164
H         8.44277056803722    6.53435335845525    5.02588444811670
H         7.16471640950191    8.64123280622390    4.88332029720532
H         5.71792133354553    7.82234882527653    5.65789528248103
H        10.38878965624641    1.03382093804269    8.10790951595920
H        11.01492971829187    2.31425456182941    9.17068031049683
H        10.85495494489590    2.60177057695560    7.42352989074070
H         8.02833958847395    4.91361212935336    9.30248132219066
H         9.37947731194477    5.00873845058662    8.15444976663757
H         9.67684010696055    4.51900979370684    9.83692218294923
H         9.00865197498091    2.14914081882467   10.87976991094781
H         8.16417572339358    0.86072144047354    9.99246402165410
H         7.28837989535163    2.32598249942135   10.46627452312660

