29
CSD_code = FUCSOL | q = 0 | S = 0 | Stoichiometry = C11H10FeO7 | MND = 7
Fe       -1.44824391710469    7.48801354773309    7.35936320281954
O        -2.18531748941725    8.16445846329831    4.59520339114251
O         1.06055131239927    6.17171119628268    6.70848294553183
O        -2.71982240624415    4.87465050719092    7.40332339057057
O         0.78250957500546    9.69511503041075    7.53388443129902
O        -4.35541916668581    7.92054143570499    8.46987847917537
O         0.58320042725675    9.04753019820383    5.39688708135565
O        -4.49585907785239    7.29173728765740    6.32296311005568
C        -1.90979773505441    7.93083667086504    5.66785113981046
C         0.08142926599525    6.68824398122494    6.99529207919999
C        -2.21095101112029    5.89902435544845    7.41525452823368
C        -0.57998942713867    9.41481436349688    7.77173775059029
C        -0.84148978406101    8.78478360088033    9.02822871417899
C        -2.14293040412853    8.33535321839587    9.26555046519810
C        -3.11020709987347    8.54099805137822    8.23289362366103
C        -4.96748246317308    7.33586452812753    7.42974862862952
C        -6.28246673454492    6.73475187606113    7.83950725090087
C         1.25072844698793    9.49503915400831    6.29290267350248
C         2.69371048991551    9.90115577238570    6.18711786700575
H        -1.20142517008585   10.24700123025051    7.43989138337145
H        -0.03597814163988    8.60439469615432    9.72949099884883
H        -2.40532779641942    7.78620331474641   10.16152570876974
H        -3.25742231094510    9.53705270220908    7.81467540610170
H        -7.05634249058407    7.04765410893066    7.14331413171800
H        -6.53675131150304    7.03167129865076    8.85179864264857
H        -6.19968336011732    5.65122594157385    7.78296033928931
H         2.74208635246558   10.95965746749824    5.93716948398874
H         3.17229588875263    9.33426354675088    5.39449942180234
H         3.19869553891497    9.74375245448097    7.13520373060117

