59
CSD_code = FUDFIU | q = 1 | S = 0 | Stoichiometry = C28H24AgN4Se2(1+) | MND = 4
Ag        3.21170274406231    7.00099614032286    4.69123488505448
Se        2.91313557417318    9.53996888217814    3.39120810651276
Se        3.55345487660875    4.51743458991097    6.08407265895520
N         1.00490629963062    7.59217343516303    5.08253756326521
N        -0.80715959031358    8.85606654484776    4.95073501316667
H        -1.38289278186076    9.67291302505156    4.82553058900012
N         5.33503896814793    6.28916481822105    4.10253773489744
N         7.09060006523083    4.94131035141637    4.10493083841840
H         7.73620715733584    4.23095538957607    4.40986807967290
C        -1.25030141076221    7.60157835630117    5.30197902584582
C        -2.51061922362624    7.08452673974487    5.55675697656361
H        -3.39596906837109    7.69676901763544    5.49197070297366
C        -2.57584314077626    5.75136641050723    5.90722038639472
H        -3.53597218796254    5.30750489091671    6.11791789248219
C        -1.42732213954812    4.96133255976046    6.00799627459995
H        -1.52971892626739    3.92798773727876    6.29998339520050
C        -0.17246057259132    5.47030216909151    5.75254285951014
H         0.71801661502684    4.86153224130782    5.85276216001532
C        -0.08735511474016    6.80909973272451    5.38626084165983
C         0.54371075575768    8.79786755213293    4.84775774007789
C         1.36610715262252    9.98609607930693    4.53291386352638
H         1.80726308084789   10.40785422618939    5.44076548131942
H         0.77282708613236   10.75759522634793    4.03726921022435
C         1.92712490292728    8.73960105970640    1.93182487616759
C         2.16536944278062    7.42011283409843    1.57465449174980
H         2.91533318965219    6.83907929038806    2.11287017584341
C         1.46365285281287    6.86334404161138    0.51966246094427
H         1.65696021113894    5.84249363371225    0.22809259799910
C         0.52456981627691    7.61511765216586   -0.16756581153682
H        -0.02258084180506    7.17621284239443   -0.98742860342708
C         0.29453951828945    8.93371758455359    0.18991467315724
H        -0.42806341035747    9.52452179592822   -0.35194742359014
C         1.00384379483717    9.50370496511467    1.23213126135445
H         0.84725018967387   10.54061958104383    1.49431660218813
C         7.22350914201672    5.72793478932403    2.98380373421054
C         8.18260184241915    5.79031860419262    1.98530545626788
H         9.03921317693053    5.13515946668184    1.98350606454227
C         7.99244879876437    6.73796056843974    1.00031776927796
H         8.71585523674452    6.82479233601993    0.20496017528147
C         6.89085106592566    7.59834729579284    1.01150310710087
H         6.79474959787752    8.33125740561719    0.22582047740335
C         5.93374339993871    7.53872685229317    2.00127933284405
H         5.09222729502268    8.22064035994716    2.02008675778176
C         6.10232819090871    6.58258770228669    2.99683536234568
C         5.95747451225226    5.32718125629973    4.74199347450286
C         5.51617789195361    4.72067669823497    6.01588404016685
H         5.75542727903056    5.36787353858292    6.86416717453366
H         5.98256260935025    3.74600696499571    6.17335363371028
C         3.33994382195876    3.56415878488385    4.41475391677782
C         4.02704468814721    2.37622497997654    4.20914354811306
H         4.66507957623004    1.97524451241215    4.98400951124329
C         3.88090439345549    1.70002782126436    3.01090000672320
H         4.41915283510452    0.77897569951711    2.84746085663632
C         3.03274946627251    2.19341643332441    2.03294762564668
H         2.91300437450174    1.65799911486152    1.10390700278659
C         2.33038425982025    3.36708912117153    2.25256941850800
H         1.65349925058861    3.74150194418298    1.50002702754935
C         2.48467000981275    4.06031165346275    3.44068204420888
H         1.92504139999132    4.97726469958101    3.62450490175227

