56
CSD_code = FUDJOD | q = 0 | S = 0 | Stoichiometry = C16H34O2P3Re | MND = 6
Re        3.13777349268118    1.38306577058276    2.51325386018878
P         3.36499514375687    3.35120855652765    3.88169325398804
P         2.02690984568284    0.12607742660890    4.28618649362094
P         4.19533403229044    2.42092321138586    0.57813377085938
O         0.35283278693200    2.24455296310075    1.43646618554483
O         3.16524754592527   -1.25451635451656    0.91175559895612
C         1.39168311756655    1.93947982177823    1.84772317695958
C         3.15258158766603   -0.26797256005993    1.50881999409456
C         5.19973593919918    0.82801104707635    3.34659408682052
C         5.77585003507962   -0.34296369397294    2.67955873944724
C         5.84922978318165   -1.58889106271374    3.17693601129170
C         6.36872581212280   -2.71114697725030    2.44952390298414
C         6.45496718023621   -3.95186705318228    2.92895107881900
C         1.93137670750968    4.49699041012268    3.90762600221604
C         4.71360873415270    4.55252908186127    3.55592683634439
C         3.65107177771135    3.13610948760882    5.68001716657276
C         1.29364805035849   -1.42764558653599    3.65945029349625
C         0.53494568411635    0.88569722213521    5.04482146191688
C         2.90192877015249   -0.53029401145942    5.75605613637810
C         4.10792190235353    1.36810083291542   -0.91543348602835
C         5.96911336224131    2.88754625602117    0.51950487874364
C         3.39384015166812    3.93963766921449   -0.07476887253351
H         5.15665273155124    0.64108430202352    4.42894859710285
H         5.86817137597407    1.68936354010782    3.19179762152174
H         6.15369249502119   -0.17945171239527    1.67153574580938
H         5.49364122446883   -1.78948852072104    4.18148185286034
H         6.70934014373751   -2.50520152958092    1.44086272678214
H         6.85500371363600   -4.76504328391197    2.34750917851418
H         6.12432527748731   -4.19497446675665    3.92627584572963
H         1.04420080699760    3.95468542789801    4.23091211129019
H         2.11496976646385    5.33819372322087    4.57590095389831
H         1.75323494103497    4.86119977087747    2.89644174883543
H         4.63656791778243    4.93843977970717    2.54124481171592
H         4.64802018412780    5.37989738048308    4.26340574635505
H         5.67270870547584    4.05105153821570    3.67585345748710
H         4.58177826429137    2.58880524915711    5.82189608370029
H         3.72309689910540    4.10988034364499    6.16574521624201
H         2.83552593093482    2.56832504856524    6.12344688806255
H         2.09753832859441   -2.08314268408165    3.32721928383480
H         0.71411421462699   -1.91769239003867    4.44191615370853
H         0.65431422573108   -1.19777033377328    2.80793942931059
H        -0.15569709528863    1.14215882561112    4.24252396628977
H         0.06109950823108    0.17835789372285    5.72490299050274
H         0.79331626491962    1.79325293093398    5.58666014913326
H         3.33808676399218    0.27142847472747    6.34679887805641
H         2.20637232141992   -1.10428566264355    6.36850764118207
H         3.69948549860022   -1.17935714405215    5.39936736942739
H         3.06938671001356    1.08492909926704   -1.08243995107893
H         4.49426820075889    1.90435800296814   -1.78233435858702
H         4.69155022731540    0.46448528262043   -0.74749351484386
H         6.56341965363461    2.00669724996047    0.75411190263497
H         6.21822148639648    3.24055287498820   -0.48138345984652
H         6.19128307085453    3.66442658732373    1.24664941598998
H         3.40880255308308    4.73404189833052    0.66864897412844
H         3.89980939947443    4.27497401761764   -0.97965850764718
H         2.35627684696435    3.69738602876362   -0.30079151879821

