63
CSD_code = FUDJIX | q = 0 | S = 0 | Stoichiometry = C20H37O3P2Re | MND = 6
Re        1.32584073715635    4.25003740477149    0.49010927149775
P         2.10752640380812    6.02940271628782    2.02434812257680
P         0.12658743415878    2.99715367052168    2.27266641346333
O        -1.35517006480302    5.45979976698960   -0.50853547429659
O         0.76543585066071    1.91180840871068   -1.45505765638326
O         2.85101179920007    5.55840400917970   -1.86164332921534
C        -0.38336669892852    5.08806766941095   -0.01184012300837
C         0.96541227342630    2.76982861641507   -0.71718375371780
C         2.29511062597128    5.09424929492602   -0.97039728991706
C         3.35947865643561    3.17210940842891    0.94459222854668
C         3.73789877379711    2.15453546227022   -0.05027546813084
C         4.62637873688858    2.24762421043479   -1.05442571432396
C         5.44789684661624    3.38233943439592   -1.37812390340081
C         6.26792905942830    3.42880093158831   -2.42612203593542
C         2.97534182648327    5.41265456121604    3.53774110445444
C         0.89041616305271    7.21839754246664    2.75575686219017
C         3.27708347823948    7.27560308229047    1.31893238077905
C         3.50830965691623    6.44475749593339    4.52328060121737
C         0.15219064204568    8.03041252355849    1.69909301434339
C         4.66028250512019    6.75574315928880    0.95763822175891
C        -0.81394603982564    3.92085859432677    3.57475222017519
C         1.00167247448921    1.78343244303094    3.36304763894144
C        -1.19853285216980    1.96285867727984    1.50546805468999
C        -1.90029330310848    4.82211164415600    3.00405094996044
C         1.43322935525678    0.52446385128887    2.62058181994305
C        -2.12840982736769    1.20951703416670    2.44906638582216
H         3.25224613292216    2.68320477745484    1.92003871653621
H         4.16215124970850    3.90967387616162    1.04091370386790
H         3.21386429566862    1.20608200560805    0.04042432707531
H         4.75049982539551    1.39182509085980   -1.70738196399275
H         5.39222855749298    4.23709011994570   -0.71821399548841
H         6.87432917472641    4.29230503915294   -2.64074606663489
H         6.35138394218451    2.60180278017166   -3.11242725883190
H         3.79719482771310    4.79068822578478    3.17280312590275
H         2.27018115241107    4.74285517411088    4.04299187185138
H         1.42872297988490    7.88981327599965    3.42983865375415
H         0.17822609602961    6.64271497931920    3.35018509702906
H         3.35505215885324    8.09787352314369    2.03849550890769
H         2.79159117672542    7.66018544550910    0.41598604681850
H         4.08154828914603    5.93783492987873    5.29822719621675
H         4.16685683029905    7.15832393981000    4.03461940724476
H         2.70304476761280    6.98943467397172    5.01055018661507
H        -0.69736903153487    8.54675228731956    2.14248071221989
H         0.80569147206001    8.77514773984033    1.25155927884105
H        -0.21473185628176    7.38435890801029    0.90321364835657
H         5.26950557881881    7.57039939607797    0.56904578531889
H         5.16867590804077    6.33357611382507    1.82234944136056
H         4.58851192454054    5.99437742556203    0.18600753989957
H        -0.08676202742252    4.51406644101052    4.13902409171653
H        -1.24739585091835    3.19132470592020    4.26489905497255
H         0.35189947985992    1.53277940272299    4.20709118308965
H         1.88020916690231    2.29613258166187    3.76680212470627
H        -0.68011910520542    1.26001196629510    0.84569978800146
H        -1.77398025956215    2.63290735412646    0.85813799427999
H        -2.33392191531045    5.43991178735936    3.78949987848794
H        -1.49458957681531    5.47581932552573    2.23475785220713
H        -2.69809775213639    4.23514775114933    2.55551333767389
H         2.15741280068497   -0.03302628027479    3.21202428778250
H         0.58494873274393   -0.12606607756861    2.42208649844652
H         1.89298989996829    0.78174862185571    1.66928943807009
H        -2.78966818636334    0.57071880739351    1.86621072840826
H        -1.57452287705548    0.57641738114965    3.13808330778805
H        -2.74922249473079    1.88861489083621    3.02799892946776

