53
CSD_code = FUDKIA | q = -1 | S = 0 | Stoichiometry = C27H17N2O6Pd(1-) | MND = 4
Pd        3.54911444215253   10.22731897107959    6.11767295646724
O         1.39789293522447    4.06447498433489    1.63926797467398
O         3.65400396372817    7.28198792287890   -1.23223602495162
O         5.22107790205325   10.25740702675938    7.36556174062695
O         2.20411405974629   11.67458510553570    6.78839891121649
O         7.17776808058197    9.21524655808416    7.61299019657589
O         0.19761342280202   12.50127690679721    6.27206474636683
N         4.56014492067768    8.85199142416522    5.29216546596431
N         2.17758912835761    9.97578416209955    4.83283539158412
C         5.73501171191263    8.56158003828156    5.82711655964495
C         1.10938731990098   10.75063094624480    4.92975393370327
C         6.33359826827097    7.50337239237639    5.07965394511027
C         0.20301303714542   10.42086235047607    3.87785757256069
C         7.54296775052250    6.82917918071979    5.21252564821079
H         8.21855845919444    7.09977254773716    6.00881521830200
C        -1.04525948138397   10.92244718017578    3.52433752715804
H        -1.48574883166233   11.71471145060435    4.10914668411396
C         7.83254178601218    5.82899570342310    4.30990240017318
H         8.76434260250157    5.28548652202407    4.38557446856804
C        -1.67704616939389   10.37996886859065    2.42638921873056
H        -2.64828917428649   10.74762927697297    2.12492603044014
C         6.93513117581736    5.50174096798922    3.29076596378101
H         7.19264799765573    4.71010912791201    2.59960857657574
C        -1.07884359748969    9.35532984352728    1.68935119956400
H        -1.60108542149072    8.95261729635202    0.83156943595916
C         5.73087427269382    6.16062007724186    3.14332653998117
H         5.05427573025032    5.88799529459917    2.34793807458663
C         0.15901101577143    8.84494366269855    2.02594521563059
H         0.59986097518006    8.05386515869852    1.43901571012099
C         5.41238798287118    7.17655116005669    4.03956254901836
C         0.82000776077108    9.37244612732431    3.13123454537573
C         4.28426637168561    8.06043836935083    4.20115028643226
C         2.08583941884759    9.10739349167967    3.76967167233829
C         3.09676275501626    8.18487744265815    3.46741828521102
C         2.89636238611931    7.28878020671774    2.30475117975785
C         2.24512291250863    6.07590116091237    2.46954103597645
H         1.88159194058028    5.77094030533054    3.43658575556743
C         2.05143365059975    5.23589222820801    1.37811351726957
C         2.51098441776045    5.60799198862080    0.11861165636317
H         2.36113169251805    4.95807188565742   -0.72732804639184
C         3.16525180857519    6.82562660026573   -0.04042328538870
C         3.35684888145550    7.66466696654887    1.05217163678138
H         3.86491513026633    8.60367305569581    0.90906889752481
C         1.15730336431075    3.17395530209964    0.58194341328368
H         2.09024959527955    2.81622210142000    0.13184650549509
H         0.52969814648017    3.62595247641977   -0.19443046103852
H         0.62745711343291    2.32991290177212    1.02171932373856
C         3.49885894940972    6.48483563133336   -2.37658912344973
H         2.44230148035796    6.31548904967263   -2.61325434535646
H         4.00643284942441    5.51936037539572   -2.27063275643768
H         3.96103124960491    7.04290420520058   -3.18991452177662
C         6.11233063216379    9.39407623124278    7.03999409420565
C         1.13506122751393   11.73930978803639    6.08224690406441

