72
CSD_code = FUDKIZ | q = 0 | S = 0 | Stoichiometry = C37H30FOP2Rh | MND = 4
Rh        6.62839818530021    3.08279340090547    4.49791992501205
P         5.92366767690521    1.65798106330641    2.86184378902185
P         7.45338855853562    4.43119956180862    6.13926398159161
F         8.31898479098499    2.18491390887236    4.44019395304841
O         4.01802477837262    4.50565010804912    4.56509047888836
C         5.02998076888861    3.94857190838366    4.54325370010882
C         4.24721624958996    1.90117784390020    2.19108049475003
C         3.18600215205254    1.61948940610377    3.04834985105524
H         3.39943554093636    1.23527174786735    4.03882510438190
C         1.88379109199004    1.82774094237994    2.64046292994299
H         1.06489015147479    1.60538192129963    3.30891249961432
C         1.62988433328953    2.33096978574675    1.37338962988508
H         0.61202730614117    2.49903163280256    1.05358332342032
C         2.68089798246928    2.62528166274085    0.52215187302632
H         2.48333197994832    3.02366697957910   -0.46259879280301
C         3.98822341921080    2.41519490200277    0.92792371901907
H         4.80784607370907    2.65049334543305    0.26316157522219
C         5.93852447652023   -0.14699896190573    3.12474305353212
C         5.11852957782083   -1.01259990640610    2.40580922071839
H         4.41516836984976   -0.61935236478087    1.68388241151211
C         5.19453860160226   -2.37598842066828    2.62552869908267
H         4.55783104711061   -3.04554229889519    2.06475285724760
C         6.08219931270757   -2.88359717235503    3.56086304483614
H         6.13663588312356   -3.94965011723862    3.72805007933587
C         6.89397362314278   -2.02461278373635    4.28327310570236
H         7.58292553627386   -2.41992112281220    5.01553495207231
C         6.82182355181135   -0.65984006378145    4.06885229593793
H         7.45227002340338    0.01880612460792    4.62631123350530
C         6.98979463179338    1.86053287447615    1.39680157266211
C         7.09598171610354    0.92078497172669    0.37800745837976
H         6.54133826343328   -0.00529720900432    0.43456489682087
C         7.92104387001996    1.17094837216967   -0.70403490115483
H         8.00535990319547    0.43938019672997   -1.49488237778055
C         8.64236699345028    2.35216149785972   -0.77451884046418
H         9.28806770650232    2.53876484433056   -1.62034010038666
C         8.54466280114245    3.28826928477626    0.24247256339498
H         9.11559796194184    4.20397700709967    0.19178786998673
C         7.72147270441237    3.04225240823266    1.32534934183815
H         7.64675647569223    3.75623777658204    2.14784566155670
C         7.13060440272167    3.72017104846840    7.78571627984639
C         6.29931493461317    2.60751522083544    7.85699732629728
H         5.88284782198593    2.20481002911204    6.93172315881327
C         6.02548511246367    2.01869825095254    9.07829127007214
H         5.38190700646119    1.15268349948196    9.13056239478750
C         6.58272648368350    2.53985849073799   10.23462852613883
H         6.36964827587026    2.08328923301279   11.19008958408439
C         7.42335895910349    3.64030193706946   10.16779014767729
H         7.86459641214366    4.03768117755166   11.07048485099236
C         7.70366181630751    4.22825657488081    8.94793874941038
H         8.37358993610756    5.07586026094518    8.89050910804787
C         6.71888172291767    6.09792550081233    6.20192670814750
C         6.16283312159476    6.68650138182543    7.32848397335715
H         6.15515985509614    6.15724354409563    8.27039038994743
C         5.60354709231591    7.95075321366904    7.24117356181501
H         5.16766550022689    8.40422455270935    8.11966262523930
C         5.59594457765310    8.63164553581693    6.03609097063381
H         5.15712568417057    9.61664740703257    5.97482126212990
C         6.14018819709092    8.04383109448168    4.90421424607892
H         6.12493857270899    8.56873629486968    3.96015566604807
C         6.69089125228095    6.78044685457186    4.98701895064410
H         7.10340155484304    6.29577121987262    4.10727899014275
C         9.23746768159094    4.77727312611454    6.29129505362520
C         9.79132970884689    6.04713217192198    6.18262730670843
H         9.15600762366824    6.90543004333656    6.01249063370322
C        11.16092165523169    6.21344091387269    6.29766461099070
H        11.58824987158435    7.20280652644703    6.21668751761869
C        11.98163864161808    5.11949167360453    6.51353588505012
H        13.05002257845687    5.25512230008426    6.59916965469115
C        11.43248857916367    3.85055128245948    6.61349572118028
H        12.07256558870696    2.99543798977253    6.77431094465388
C        10.06679321286888    3.67806317136947    6.50182620268820
H         9.62984249507739    2.69147342001698    6.56108559522943

