76
CSD_code = FUDMIC | q = 0 | S = 0 | Stoichiometry = C20H47I2O3Si3Y | MND = 6
I        14.73825915037756    0.91327338869261    6.34561903950734
Y        14.43753374206519    2.60172091630196    8.67599144010715
I        15.30587185171928    4.17431226221800   10.93427086914115
Si       11.73546239463962    2.98572661498071    8.70972333741463
Si       10.73951979868817    1.75925192474481   10.48870770412053
Si       10.49518836897105    2.64217425913386    6.70372756468683
C        11.34954622493281    3.28138558181442    5.10981258429441
H        10.74883127401730    3.06301781790799    4.23073985262574
H        12.31443944101609    2.80522871036227    4.96225763350443
H        11.50427040622887    4.35739426143848    5.13351451819331
O        15.33965516472184    4.58264666207904    7.15846997554779
C        11.31239859511016   -0.06239299524578   10.31071835717335
H        12.36015991111912   -0.12070155166321   10.02530309018501
H        10.74316747519403   -0.56929704241939    9.53807130607511
H        11.18520106709702   -0.62625915603290   11.23065852527148
C         8.82890326549452    1.73008469888502   10.52268463889301
H         8.44692711214448    1.15686231814442   11.36281957418164
H         8.43021068149615    1.28712208025243    9.61514416661265
H         8.42609223173178    2.73505725387028   10.60192442607634
C        11.31381148248346    2.38918297197947   12.20781912770707
H        10.75478966836133    3.27561499096736   12.49199611167172
H        12.36483025801749    2.66721679614800   12.20775266554265
H        11.16917565265922    1.64869257536240   12.99087529013070
C        10.23829209330015    0.76502928608838    6.47185353196352
H         9.68417504175892    0.54792877066393    5.56354944589560
H         9.68732530852996    0.33451533221841    7.30257633020873
H        11.18895629233794    0.24574111043046    6.40170701492187
C         8.77349553441396    3.47506191055616    6.77183967155508
H         8.86054130993450    4.55510657392405    6.84175738782201
H         8.21194524616955    3.13653107823180    7.63678341815882
H         8.18288264265046    3.25101380468552    5.88796658728058
C        11.38264842398132    4.83581486571996    9.20298080475573
H        10.30502347226883    5.00904108735290    9.21941609676543
H        11.74220036268241    5.02826444587536   10.21622632137978
C        12.03048100449464    5.83838274140199    8.25882555662169
H        13.11303021049139    5.69352534246507    8.23447631476389
H        11.83769947309211    6.86373872011686    8.57446566429287
H        11.64595025310605    5.71791467448814    7.24641088151935
C        14.98214725441199    4.78332852719372    5.77924606571524
H        13.90798694316095    4.61095923510734    5.67038298503782
H        15.52274949106395    4.05059974788612    5.16571769642225
C        15.40146564722000    6.20599005042777    5.42607868983291
H        15.62727718892265    6.31492321148498    4.36859302068437
H        14.61597953837239    6.91183187092994    5.69777669914572
C        16.61792474236687    6.39895007721806    6.32747395032907
H        17.49183367966486    5.91098387140833    5.89305374323695
H        16.85202862313908    7.44321426497049    6.51621766873113
O        17.11053222663977    2.21182545389333    8.59402358029297
C        17.94314322834699    2.39942360628170    7.45253164845807
H        18.15492685573633    1.42328901628138    6.99500478522665
H        17.40025127581421    3.01172392947507    6.73195476789036
C        19.24208163885130    3.05297853173705    7.96006953096567
H        19.29029738732628    4.10730545718296    7.69200634769309
H        20.11161837872222    2.55574923201445    7.53421773612789
C        18.00906101974584    1.88284333822578    9.64424810857886
H        17.48808640403118    1.98158763946365   10.59585344407457
H        18.36123496381724    0.84753111886164    9.51921572431537
O        14.91473947912002    0.47484896774248   10.18747961264058
C        14.81559579998893    0.39874466616801   11.61990627298217
H        13.89289382928607    0.89591587540841   11.92889387636920
H        15.67183757048215    0.92248011933237   12.06536570237471
C        14.84701839283815   -1.08320954417983   11.97139639013308
H        15.21185902080545   -1.25773647075368   12.98018911017889
H        13.85204340387391   -1.51747868729677   11.87051460282303
C        15.77528463722951   -1.62864716217893   10.88995650272241
H        15.65064205984604   -2.69373690533539   10.71301926083559
H        16.81589943950159   -1.43123121436572   11.15133924933186
C        15.35934655359759   -0.79702008387082    9.68146519238156
H        16.17642793459132   -0.62859688182121    8.97508214170901
H        14.52571035438293   -1.26995385747502    9.14646676089352
C        16.16969560491585    5.67497087458462    7.59086249577854
H        15.57643804655946    6.34070678571272    8.23104811116592
H        16.99642836074617    5.27033709117667    8.17949233147530
C        19.16830952644516    2.86721016027739    9.48386799348785
H        20.09202145397244    2.48258978671140    9.90852039040108
H        18.92029015696362    3.80584321600768    9.97933098296523

