82
CSD_code = FUDMEY | q = 0 | S = 0 | Stoichiometry = C21H51I2O3Si4Y | MND = 6
Y        11.08616844455921    3.04657248021281    3.16230858181578
I        13.35817378734793    3.68314000165828    4.83377036276503
I         8.81464615485041    3.83204945824025    1.55591785825539
Si       11.23513193779842    0.32017618632568    2.91287808210580
Si       10.97781192078528   -0.48090343605790    0.68437581109194
Si        9.40962410241192   -0.51145240006603    4.20227656816720
Si       13.20713080102369   -0.68625989987096    3.80534043326257
O         9.53432431278470    3.79930557173691    5.20240347266239
O        12.64186803679708    3.55009134397401    1.05708747535469
O        11.20414014424487    5.75806205686499    3.15834519662880
C        10.42526208649120   -2.30815591020755    0.63380633647683
H         9.42298518660914   -2.41833337657622    1.03614803164757
H        11.08596495234772   -2.93588353935462    1.22223834691532
H        10.41570977269519   -2.70084300354057   -0.37904944882334
C         9.69742892595277    0.49184225070267   -0.35019095740573
H         9.55916596060442    0.05274413591228   -1.33534638696491
H         9.99437041313722    1.52619090893870   -0.49645318428140
H         8.72730902826575    0.50492146481164    0.13703946994462
C        12.63831014745370   -0.35979090952475   -0.26608544089434
H        12.53489481690673   -0.67209758936295   -1.30166661918998
H        13.39717746281835   -0.98787376607081    0.19010171310156
H        13.01506873949447    0.65882526348839   -0.26844638769296
C         9.37472944343677   -2.39301780194060    4.52174399392799
H         8.50275665708313   -2.69281368747702    5.09641899486691
H        10.25485592503310   -2.70900789369056    5.07314077976621
H         9.35731923516568   -2.94514065782292    3.58805053920731
C         9.44212539611345    0.31864881951898    5.93464983439926
H         8.46393908449624    0.32682422877813    6.40896970177873
H         9.79086313202518    1.34814265217157    5.86968669898333
H        10.12105550070746   -0.20501371584485    6.60023019878427
C         7.74005803181903   -0.05129541460936    3.38244823261567
H         7.57788040946947   -0.64998359167404    2.49135479312538
H         7.71163164573849    0.99051800039343    3.07412101926324
H         6.89396357390177   -0.21966359475597    4.04409704339892
C        13.29101910102144   -2.54478093583217    3.36607183508913
H        13.41556052424626   -2.69010874916574    2.29754175348685
H        12.38317415642567   -3.05963027877581    3.66313145932692
H        14.12311084072210   -3.03686204498887    3.86149585680913
C        14.83108704918348    0.08692590492181    3.14933555820091
H        15.69968513186668   -0.45003120476115    3.52146219034161
H        14.93679244711501    1.12051177865941    3.46322474288508
H        14.87531642443327    0.05674548160783    2.06393135971664
C        13.24850858863843   -0.55411256630056    5.71068112759815
H        14.16969294951837   -0.95965707037903    6.12005238200477
H        12.42342865897383   -1.09979503426807    6.15879826875226
H        13.17894015106413    0.47836599682935    6.03810598908638
C        10.01741930238039    4.41114921069156    6.41293589162983
H        10.69729700042028    5.22533339627596    6.14870943213460
H        10.57602838465854    3.65804958457046    6.98321933090882
C         8.79111841677544    4.88432429398248    7.18652925785252
H         8.96315198952102    4.88531217299993    8.25965905618615
H         8.50372171268293    5.88853889947434    6.87197695589167
C         7.73900618883300    3.87145429426179    6.74407122202369
H         6.71933968270068    4.22468665670005    6.87317350487766
H         7.86498333678622    2.93380002878887    7.28616614136664
C         8.10272412805575    3.68796716433226    5.27656446619723
H         7.81087106708250    2.71438741282968    4.87511072955192
H         7.64912743543923    4.47751396060468    4.66298714458578
C        12.21522798658668    4.02307263937985   -0.22924331018443
H        11.45283196805880    4.79031034698094   -0.07795856603777
H        11.77552184088227    3.18809449681553   -0.79124350950468
C        13.47036625564344    4.53609540879901   -0.92249733273649
H        13.71728252933181    5.54043583107283   -0.57428292221703
H        13.36641661117489    4.55113205579808   -2.00414552770880
C        14.50899868978657    3.53124518679159   -0.43044406026584
H        15.52663274254706    3.91075185050660   -0.47465439147187
H        14.45027246313925    2.61374964904475   -1.01703682658685
C        14.05655669444225    3.27846683658268    1.00666642908085
H        14.22806066126298    2.24809974966276    1.33112990346702
H        14.56162141001633    3.95595805258526    1.70605311110815
C        12.28408864029123    6.53200459534484    2.64785611006176
H        12.93362887355032    5.87258137708542    2.07200331036879
H        12.85670369988647    6.95038327223011    3.48749096058855
C        11.64945246876123    7.65687159744796    1.81101214577605
H        12.15294513394252    8.60442437397796    1.99296962148774
H        11.70875599871002    7.43817515186776    0.74579120474863
C        10.18756434386453    7.67820804710359    2.28758083441540
H         9.52306860481099    7.29392165074050    1.51446917120125
H         9.85197484918735    8.67141908241619    2.57503513881262
C        10.20358151414347    6.71470735367311    3.47710099515269
H         9.25706713220376    6.19530622656088    3.62281174589334
H        10.48232904884614    7.24467217919645    4.40068896297710

