96
CSD_code = FUDMAU | q = 0 | S = 0 | Stoichiometry = C50H40INOP2Pd | MND = 4
Pd        5.87703029569215    4.54927898487625    3.98994186052948
I         8.20864317005558    3.70107851618175    3.03258843349525
P         4.76228817829331    2.81797284963222    3.05316981228986
P         6.54817477764933    6.70079899680956    3.92692205787540
O         5.43130740621152    5.31736267491435    1.49180570462442
C         3.09198290138920    5.73187822883963    4.21309918512057
H         3.05228866805807    5.73218262409343    3.12816613826738
C         5.02917380703051    1.06674996059294    3.46564749336782
C         2.94176734940646    2.89102046823919    3.07232558748062
C         5.49041369124059    4.83361097160566    6.92990457260579
C         4.20249519672470    5.23074636332852    4.87073829084450
C         8.02550935550859    7.87094478415085    1.83709434639249
H         8.54955438588588    8.40534899691281    2.61482463688763
C         7.01885817827358    6.97718814780643    2.17978924725716
C         6.38068481514229    6.25819113505577    1.15812349620669
C         5.26980869048705    7.97761111183378    4.15820008565137
C         5.41288864534863    4.19703220021307    0.69022028579564
C         7.91874918975341    7.35607596242685    4.91992722926129
C         6.71123215123689    6.46581124594760   -0.18098650587722
C         6.15040728160157    0.70565269680200    4.20500930781115
H         6.86665017074415    1.45516217771975    4.51508314355049
C         5.13185864182318    2.94889316787226    1.26518515347243
C         4.48762724654207    8.43479199383490    3.10387420944321
H         4.69655824697129    8.10658016742564    2.09454100249973
C         8.71825906588048    6.45226960695906    5.60947274421806
H         8.52867871384414    5.38961817391820    5.52122604178433
C         5.69772535987290    4.31365419582226   -0.67067826513151
C         7.72453061000374    7.36066011542608   -0.48631350687781
H         8.01195439283490    7.52491537798404   -1.51147590861967
C         5.18256519723271    1.81779526639562    0.45896393457238
H         4.99875749525700    0.84708851906764    0.89386825709823
C         4.25372378301246    5.28665792363271    6.26707450412951
C         5.88916979476987    5.71717097981182   -1.21211961483946
C         2.06621955488338    6.27848520713047    6.31387404594353
H         1.23237636988216    6.67974784476861    6.87172388579881
C         4.50169947825639    6.38863990235477   -1.29437886823113
H         4.00599211691706    6.38894457454076   -0.32564687247558
H         3.87088809648255    5.85351910138512   -2.00159544798303
H         4.60591874733751    7.41952478689304   -1.62751030281684
C         5.44638277559797   -1.58633314539425    4.16267637407383
H         5.60758571272706   -2.62044609749126    4.42967053741822
C         4.31825096647628   -1.22855868502256    3.43987619118878
H         3.60096687744155   -1.98162957519089    3.14640747275087
C         2.02379320873225    6.24564556104442    4.93081425512349
H         1.15971604539252    6.62678916736573    4.40487543656146
C         2.31677675139285    2.64244910520759    4.29256087155405
H         2.91894281883218    2.36698793205440    5.15061654934652
C         8.38288439690969    8.05103842358955    0.51533271730239
H         9.17814735090712    8.73549725977552    0.26290192706017
C         2.17623179085429    3.26031022059531    1.97379382592698
H         2.65425984658512    3.46129634003601    1.02398536166454
C         6.52408612862805    5.73559289497623   -2.60036506185798
H         6.61705224615547    6.75866439938462   -2.95618747579396
H         5.89334778276674    5.20460472900393   -3.30888168128291
H         7.50806478736184    5.27302548954233   -2.58201785712384
C         4.10403947290048    0.09185067320472    3.09456298903792
H         3.21510309953073    0.37193926354610    2.54441231070225
C         6.35792754250185   -0.61883714623123    4.54791261973511
H         7.23270764145578   -0.89022607655573    5.11888163000266
C         0.80154002099534    3.37024044418369    2.09589396439257
H         0.20956702063241    3.65739767822051    1.23854735171219
C         5.49763359511111    1.92447711876251   -0.88109137565767
H         5.54934175830981    1.03686443574350   -1.49280856275031
C         5.74662752692156    3.16392921202841   -1.44286918781686
H         5.98294604054154    3.22524949506424   -2.49214041169734
C         6.07189500141974    3.59928249430827    6.58604992767238
H         5.51259163409057    2.85998908704098    6.00184051871237
C         0.18630399855026    3.11819630704379    3.30968275476065
H        -0.88591036971899    3.21044234530880    3.40112295542383
C         9.75499136124280    6.90534535438157    6.40520806831836
H        10.37584369444195    6.19571606251117    6.93093134755660
C         0.94627686239664    2.75080708775728    4.40970718677176
H         0.46868726582604    2.55782843414676    5.35898800845836
C         3.94146675174325    9.27449520302993    5.68874273019061
H         3.72634499964371    9.59784532162235    6.69678052154888
C         3.18294088130528    5.81180449987114    6.98222229385379
H         3.22795617339694    5.84308077513783    8.06271052501981
C         4.98536978947973    8.40259359386950    5.45352743419225
H         5.59357130000781    8.04304660210749    6.27314322520459
C         8.14843483345989    8.72417749830395    5.05470540162912
H         7.50813153065530    9.43265821431669    4.54540824245317
C         9.99077229150019    8.26396106959512    6.52372415824397
H        10.79917367919890    8.62147713941777    7.14454735072666
N         7.23084458212605    3.17915445804926    7.06339155050974
C         3.16658873056914    9.72838401503140    4.63333770865195
H         2.34624061209659   10.40609352617782    4.81794636681169
C         3.44398271213746    9.31051416259647    3.34336697417823
H         2.84137290272438    9.66412590100528    2.51901445612204
C         9.18461719796058    9.17100685161966    5.85206111417696
H         9.36371640602565   10.23189615193520    5.95287580346625
C         6.16541156890577    5.60752720733064    7.87004247618936
H         5.74588341222787    6.55051669402149    8.19503759772059
C         7.37911581771786    5.16400732439450    8.37109399178464
H         7.92487877905777    5.75028824914777    9.09461866351303
C         7.88460676520670    3.95813488561547    7.91006105884585
H         8.84456441141510    3.58442836265882    8.24076941431399

