48
CSD_code = FUDNOJ | q = 1 | S = 0 | Stoichiometry = C15H20F3IN4O4Rh(1+) | MND = 6
Rh       -1.46582069276232    7.58280561629262    4.47919337306669
I        -3.69358398390173    8.57726157360994    5.39425809410199
N        -2.66837041855537    8.15271018899158    1.83248409517609
C        -2.32916875670428    7.23353905205594    2.75323476192359
N        -2.62923367718925    6.03383304167149    2.23719951246511
C        -3.14652478283049    6.19676698207057    0.97869797811410
H        -3.45042623501090    5.36847961587902    0.37270278226946
C        -3.16675970103253    7.52445426962982    0.72253335150627
H        -3.49657661579000    8.05841571825371   -0.14408633967021
C        -2.45450106095350    4.75842949210892    2.89885017474412
H        -1.39949743566151    4.46302266121196    2.85195247437453
H        -3.04455544782112    4.01506348287497    2.36041579019200
C        -2.91562200285924    4.81585442374545    4.36333489977167
H        -3.87199026757729    5.34760135166371    4.43108668063829
H        -3.04915795696414    3.79562434603895    4.73953772572517
O        -2.01031954290190    5.51004931630322    5.20644786708112
C        -0.94123432779846    4.69075262532436    5.67561586908986
H        -1.34345840026867    3.91380995651124    6.33306776086784
H        -0.25797454059183    5.32866086949986    6.23406153610572
H        -0.38849629827823    4.22575819199108    4.85596491512679
N        -1.37975878475292    9.95838352006732    2.70338116374749
C        -0.87017342360022    9.29394826559307    3.75222845181500
N         0.23938282301575    9.94181182331507    4.12920350134655
C         0.43174035444261   11.02370670699053    3.31120210964826
H         1.26250285704445   11.68908359306666    3.42515270180879
C        -0.57987436156916   11.03161368875312    2.41229783620608
H        -0.78892873780178   11.70699497005734    1.60907928499691
C         1.11235870894875    9.53054147998941    5.20668516575837
H         1.85562180725468   10.31350390058272    5.36244308858053
H         1.62690493025123    8.60306739219558    4.92843349060598
C         0.34496570738361    9.29023900650891    6.50609119313453
H         1.06633799696248    9.21202021546538    7.33036437831158
H        -0.33720961413827   10.12991437860217    6.71088260908017
O        -0.38852104308787    8.07634568930455    6.42961828145153
C        -1.01836015761801    7.77659063404638    7.67127548740012
H        -0.25765186846012    7.57798428406883    8.43258077704115
H        -1.63710676213579    6.89205271870256    7.53075816932003
H        -1.65177232014032    8.60516210538846    8.00202004385550
C        -2.58353057486633    9.58306857712324    2.00604062287401
H        -3.45947280556051    9.92707388971125    2.58217305341051
H        -2.58645769606928   10.05898793912120    1.02114446686053
O         0.29406440069185    6.67762105627759    3.79808795790228
O         0.22009407123185    7.64167745810866    1.79365279697722
C         0.68749334992397    6.88332000107073    2.61841770352741
C         1.91311781129232    5.97930888298156    2.26626958726366
F         2.33847584622574    6.14049888338608    1.02035241445206
F         1.57013599889891    4.68675291297346    2.42127190311160
F         2.93749363168481    6.22093325082117    3.09393845684325

