69
CSD_code = FUDSON | q = 0 | S = 0 | Stoichiometry = C37H23F4IrN2O2 | MND = 6
O        -1.62156227754809    1.21960026075088    8.23214508910971
Ir       -3.53345636909315    0.30726155451022    7.71898291902002
O        -2.46002041516536   -0.54271222120725    6.02350159158005
C        -4.45074595925295    1.22341481674590    9.25003877287438
C        -5.22075907636324   -0.65681203685833    7.22107307544706
N        -3.92123833001876    2.06316518004460    6.85379592707530
C        -0.30532533207988    0.39382691645529    6.42504900419916
H         0.69267866286002    0.42562822527512    6.02082042363989
C        -4.40431559804899    3.04393487440939    7.65283204343937
C        -1.23370011990190   -0.41730270203726    5.75950583504555
F        -5.54107681450659    4.68062996229261    9.83238532023082
F        -6.30656621499187   -4.15278698158510    7.50209584897277
C        -3.61636098813395    2.33906998724616    5.58981194001384
H        -3.25171969857043    1.51354464166162    4.99423042785239
C        -0.74694620964454   -1.17897153433579    4.57233799249770
C        -0.55189587847635    1.16679496759405    7.56723623856504
C         1.70671175957032    2.90986522253894   10.01561219911194
H         1.77451544834674    3.03977090945560   11.08585420771518
F        -8.38661607186111   -0.50418005556412    5.45595781293264
C        -4.72423680456948    2.59112041493048    9.00121334838612
C        -1.22540048753093   -2.09016282343842    2.39327105028011
H        -1.91571156734095   -2.24210646286904    1.57641433656996
C        -6.30638969598884   -0.16408384536137    6.50703005831356
H        -6.36334886469427    0.87507070794990    6.22142084680531
C         0.58105228673546    1.97952488506088    8.09866058682809
C        -5.20664148657198   -2.02918594391377    7.57250530524468
C        -1.62919156403193   -1.39421696797838    3.51648355132794
H        -2.63533334117149   -1.00776078274518    3.59169014717695
C        -7.34402652080476   -1.00377682083984    6.15007547478035
C        -3.75332521831214    3.59932982156500    5.04076008811745
H        -3.49109735234499    3.77316166202240    4.00965605204777
F        -5.53546127505084    0.99593092760731   12.70447434063314
C        -4.73435327766285    0.70664700258448   10.50847325949455
H        -4.54734304324073   -0.33004997485707   10.74291321607124
C         0.67454407073899    2.16685412430965    9.47544748106126
H        -0.07463539692692    1.72120122834297   10.11372505505736
C         0.53929443818671   -1.70443033986541    4.49603983868891
H         1.22437566202679   -1.58430823958674    5.32241163090867
C        -5.26464885947513    3.37064417203357   10.02382758020710
C        -6.27715134585623   -2.83725025630117    7.18973418547508
C        -4.23154079764997    4.62118752882057    5.84811983670120
H        -4.34798988088897    5.62147409482115    5.46014863650445
C         1.52344015894742    2.58011206794120    7.26941570931446
H         1.44350131237371    2.48132507219823    6.19677606695295
C        -5.54438050136525    2.85680508653317   11.27334945242841
H        -5.96145183109202    3.47947731752778   12.04716682532606
C        -5.26959659118166    1.51851549789906   11.49014660164486
C        -4.56241544941599    4.33943438028092    7.16012189581938
H        -4.93759278212203    5.12197260033391    7.79585929495512
C         0.93781976240589   -2.40910344004340    3.37481310469226
H         1.93690152465623   -2.81749374965499    3.32597204349859
C         0.06186477431975   -2.59576934702017    2.31807535667345
H         0.38001923076309   -3.14153643817634    1.44197727122681
C        -7.35371033705182   -2.34725976001275    6.47937939238780
H        -8.16858526118099   -2.99186223682846    6.19491257314868
C         2.65005230600344    3.49085999169780    9.18438729607979
H         3.45703135591887    4.07374593287753    9.60356520083803
C         2.54977480555709    3.33166666734601    7.81199112351199
H         3.27430375345413    3.79831445398680    7.16032715791951
N        -3.16518988548432   -1.45060977987007    8.58941821075296
C        -4.03397903844883   -2.45567503649756    8.32653300743643
C        -2.06508548771733   -1.70314291531717    9.29128645933721
H        -1.41655331236107   -0.85968443843697    9.48436704361126
C        -3.76907526705533   -3.75034734057269    8.77333804229266
H        -4.45417237159923   -4.55152995131062    8.55866126428963
C        -2.61718304457911   -4.00720568125145    9.49264279024640
H        -2.40332566985523   -5.00675260352078    9.83889986509408
C        -1.74649905538862   -2.96170704034785    9.76382989329956
H        -0.84055329320254   -3.11630540943899   10.32732448122656

