86
CSD_code = FUDTAB | q = 0 | S = 0 | Stoichiometry = C23H53I2N2O2Si3Y | MND = 6
Y        16.53642409325768    2.31648889067838    7.05463973701993
I        18.36665215371327    0.36185910098201    6.06425788282091
I        18.44971933680866    4.20866179426088    8.00422664571748
Si       11.91321753571070    2.58763569385063    6.94628603626270
Si       10.67909786164133    1.93833119117678    4.99426339813906
Si       11.06200449702301    1.47896167376822    8.87170224433579
O        16.83966190878161    3.72655478593600    4.92527105268747
O        16.85059333728710    0.86235334208253    9.17282366330948
N        14.62935257576513    3.11164607881799    7.86355772581706
N        14.59412070285774    1.69408140727415    6.18901334323503
C        13.85878527004346    2.45327271278594    6.99894673088941
C        14.15005221284503    3.90681736259638    8.97077184549315
H        13.06706575971329    3.77556902465577    9.09826533098076
C        14.84065474091730    3.42775529986319   10.25520055827647
H        14.65192321823351    2.36626997557761   10.41379012768524
H        14.46655659335313    3.98326697009523   11.11245479087945
H        15.91753827212947    3.58461039534027   10.18740492150127
C        14.46079239738548    5.39275815647937    8.75106442381636
H        15.53662760816824    5.54877103177313    8.69173670361497
H        14.07595300599905    5.98126486557070    9.58083374230358
H        14.00699236809547    5.75075722367199    7.83020382964197
C        14.07046114674944    0.80108177151713    5.18678995914099
H        12.99994218309003    0.98434034297813    5.03137473822733
C        14.24324746051947   -0.65444426612346    5.64154555472081
H        15.29898345947361   -0.89325555354522    5.76165390877724
H        13.82449376620385   -1.33140396362930    4.90047240585571
H        13.73439861958879   -0.81483298668013    6.59067438929709
C        14.79990519530457    1.03136061106460    3.85904574304611
H        14.66795676404372    2.06117006585986    3.53131462938864
H        14.40480445318725    0.36783548114625    3.09331230876324
H        15.86565393437004    0.83320848131736    3.96878929484025
C        16.12958147710154    4.96146422078445    4.74135627201687
H        16.03412606204347    5.45286424703712    5.71930624671943
H        15.12708809693643    4.73845629895135    4.35787048603306
C        16.94911919980146    5.81780696116876    3.77499250399133
H        16.61141412687615    5.66505736504192    2.74912468926840
H        16.88124428300698    6.87583061271586    4.01474376673912
C        18.35455092838179    5.25192725847439    3.96014546787306
H        18.81530242137794    5.65918703926736    4.86084651066870
H        19.00606071186608    5.43370494085715    3.10992761410232
C        18.05261068358711    3.77266626994160    4.15322783953392
H        17.88161084690442    3.27317328409069    3.18971277581713
H        18.83769835758287    3.24215152356437    4.69816388261581
C        18.08188931484709    0.84874174919317    9.92250328924851
H        17.94247066532710    1.44404976982914   10.83493013753455
H        18.87353966459674    1.30031968439640    9.31828321136785
C        18.35559903210277   -0.61229382172446   10.25329324792866
H        18.98409993461877   -0.72358238918050   11.13260034499672
H        18.83215503035581   -1.10525032602125    9.40514334144291
C        16.93924304783781   -1.14402682661623   10.45044401560883
H        16.86452622820001   -2.22138799623595   10.32773204073671
H        16.56461875005026   -0.87060469720699   11.43797155591136
C        16.17781547941792   -0.39193043112798    9.36235684016919
H        16.19964119594473   -0.95187467328310    8.41693695020148
H        15.13529714168519   -0.19051284915011    9.63211783845584
C        11.40627669326852    2.36053121484257    3.26217795233466
H        11.89047157519408    1.49942166845891    2.81126828803450
H        12.14634012753412    3.15389556238007    3.31470905332987
H        10.62786601722669    2.69115011380032    2.57905748039572
C         8.97950252982754    2.81316832033267    5.07661734252350
H         9.06613645063220    3.88331167863691    4.91581025512530
H         8.50565980171224    2.66512411641428    6.04152124760973
H         8.30159616708296    2.42669405727522    4.32030606739109
C        10.30395825700402    0.06055217309572    4.98641220852465
H         9.69370336056396   -0.20720648316747    4.12841730976504
H         9.75913724204697   -0.23857328782936    5.87592193558875
H        11.20569613149641   -0.54159325276232    4.94206136897252
C         9.17315555624915    1.26174192764153    8.68708570907814
H         8.91102102164406    0.73466394119391    7.77629639259706
H         8.67174911647034    2.22438432975937    8.66421110158633
H         8.75660884168601    0.70028234446472    9.51810279514266
C        11.84147605838206   -0.26750404341796    8.97716489168958
H        11.53935430556442   -0.80129542059968    9.87370302846953
H        12.92692846630321   -0.20896365193820    8.98197491336357
H        11.55283115897564   -0.87337236774059    8.12358456174313
C        11.27395882512551    2.29070528522163   10.59860440386548
H        10.67804155774460    1.77260920893861   11.34673318381216
H        10.94482733832366    3.32631168913227   10.58718999404176
H        12.30405473306348    2.27844205388054   10.93950882657286
C        11.44539284625609    4.47040932134830    7.00086798837188
H        10.35704013662385    4.53519974290098    6.98757724976579
H        11.76016109052282    4.95486718283127    7.92306357355862
C        11.99845172460405    5.26250466696029    5.82063301723214
H        13.08157047625213    5.15961056631179    5.76227427897525
H        11.76442506864200    6.32254729539330    5.91512171075235
H        11.57497221135381    4.90629587047954    4.88450333428295

