53
CSD_code = FUDVIK | q = 0 | S = 0 | Stoichiometry = C26H21Cl2N3Zn | MND = 4
Zn        4.61697741018425    5.35942270705094    0.12619592220263
Cl        3.30747408937756    6.66892619793425   -1.15765604120848
Cl        6.11857519137110    3.85782474911198   -0.35480462120992
N         5.17806717230408    6.83372672407729    1.50768433310414
C         6.49617001889698    7.30967528425542    1.50745535684527
C         7.23767501885030    7.26019322481569    0.33135515800039
H         6.77047491442832    6.90404932794133   -0.57714356609647
C         8.55523904612137    7.67520078101231    0.32779658494008
H         9.12197512022698    7.63812314765988   -0.58995122860761
C         9.14978167607722    8.12703607237249    1.49491724360413
H        10.18203763554268    8.44242954046623    1.49040535646196
C         8.41935439379881    8.15949141442458    2.67074853710754
H         8.88054140271859    8.49645465885498    3.58726693395164
C         7.09736214436679    7.75720200190729    2.68221710367476
H         6.53278606558486    7.76114028126134    3.60360129273075
C         4.22116879105256    7.52210947020789    2.01153584437099
C         4.34545410168341    8.93686150384363    2.43581511107035
C         4.92049074668322    9.86582344141473    1.57274285171592
H         5.26487760216861    9.54596801080491    0.60165154339489
C         5.02017462115230   11.19110826976248    1.95207121977259
H         5.45995710125716   11.90807228731788    1.27622624223822
C         4.55901248433754   11.59827522968326    3.19360140803686
H         4.64580421219214   12.63243827419648    3.49028699501654
C         3.98388811011147   10.67846393297679    4.05467532239972
H         3.62416395730388   10.99297292557852    5.02288875555381
C         3.86726953581916    9.35355889955848    3.67584128950306
H         3.43502372565335    8.63463796404765    4.35833515233158
N         2.96100946533978    7.01539045757406    2.19257094426943
H         2.26922563121438    7.70717422281922    2.45594554199019
N         3.14267333629649    4.79833277853829    1.50768418736290
C         2.66672474619925    3.48022995051562    1.50745514437073
C         2.71620647945966    2.73872508029789    0.33135486654173
H         3.07235016765679    3.20592526225888   -0.57714390069979
C         2.30119887273404    1.42116105914374    0.32779627433600
H         2.33827629041198    0.85442506903059   -0.58995160026185
C         1.84936387175720    0.82661833239845    1.49491699167886
H         1.53397033727491   -0.20563760879723    1.49040507271672
C         1.81690890711742    1.55704547822709    2.67074838428748
H         1.47994593992871    1.09585836594790    3.58726683080111
C         2.21919839637236    2.87903770339701    2.68221697778218
H         2.21526057530819    3.44361365375353    3.60360124686340
C         2.45429052013774    5.75523110754633    2.01153569420709
C         1.03953853894782    5.63094568707390    2.43581504006281
C         0.11057646432041    5.05590897760100    1.57274294427983
H         0.43043173921014    4.71152202469757    0.60165162497213
C        -1.21470832791020    4.95622528209864    1.95207145267402
H        -1.93167246470448    4.51644281318538    1.27622659345045
C        -1.62187513021816    5.41738759815369    3.19360163697226
H        -2.65603815326009    5.33059601250801    3.49028731714077
C        -0.70206366693212    5.99251183478609    4.05467546197850
H        -1.01657250996546    6.35223603677629    5.02288892958334
C         0.62284132182590    6.10913031774111    3.67584125965541
H         1.34176236221096    6.54137618019726    4.35833498209343

