31
CSD_code = FUDZUA | q = 1 | S = 0 | Stoichiometry = C4H16CoN10(1+) | MND = 6
Co        2.60886906164324    6.56626888451245    7.00821579621646
N         3.20534806550028    8.56899788151168    6.74232136013856
N         1.40246124839051    7.33241951324097    8.39321448787397
N         4.20590941292161    6.18286907832626    8.32308070048840
N         3.83800279188609    5.81441964138757    5.63422022005920
N         2.04009849101813    4.84450967007870    7.34259454043655
N         0.94555061817146    4.44754622668582    7.52659609011182
N        -0.03409621730056    3.93230016751064    7.74845574711469
N         1.28074828195952    6.89436615645038    5.77210334971215
N         0.94403738559134    6.23871032950157    4.85240484897800
N         0.54022640878585    5.73893457393847    3.92402183242115
C         2.17949705849294    9.39059593344276    7.40891841138390
C         1.80824229912660    8.70818911556646    8.72010802778745
C         5.11711144898612    5.27473024073731    7.60445840933373
C         5.21094040233303    5.74882653537577    6.15912439774673
H         4.67858605387513    4.27535770340560    7.62187966830565
H         4.72730501981793    7.00528589468737    8.62266088084642
H         3.89308287459423    5.71437859046913    9.17081428330073
H         1.29988084112369    9.41945256394209    6.76329791007254
H         2.52176006493962   10.41408824669171    7.58747706176865
H         1.00477954750759    9.25689739141631    9.22056598131603
H         2.67266754847766    8.67756128406498    9.38915495033879
H         3.23044758606206    8.82805926045307    5.75830772586016
H         1.27942417343588    6.78916226223646    9.24943505974113
H         4.11896402276715    8.80484919885233    7.12652819298584
H         0.47885579108457    7.37195579972914    7.95139587321754
H         3.51294485044127    4.85488285816329    5.48038852476567
H         5.83352213718220    5.06550851610648    5.57386015066727
H         3.83441876293150    6.26069771028175    4.71533826500805
H         5.65904000563652    6.74536676731243    6.11568873052850
H         6.10857396261745    5.23481200392184    8.06486852147528

