53
CSD_code = FUFBUD | q = 0 | S = 0 | Stoichiometry = C20H26Cl2O2PdS2 | MND = 4
Pd        2.77814349340197    3.75016219380039    6.97522098863938
Cl        3.85083703965265    5.48033559177750    5.91511229607999
Cl        1.76688245905426    2.00082981736626    8.11287865718404
S         2.61306190451194    2.68386674345121    4.94253735090450
S         2.98195481120096    4.70103610110173    9.07680664531703
O         0.15538856197457    3.81725860989965    4.40362654687107
O         0.49120633588700    5.29221907146165    6.96823127681767
C         5.25024977766760    2.26885488862861    7.18552119900024
H         4.55704150301283    1.82774511282636    7.90190358464314
C         6.35683101559186    2.96915239778415    7.64106437074190
H         6.49307762433275    3.13040716325164    8.70058552527166
C         7.28992355319561    3.45763781392607    6.74035597375744
H         8.14688244413793    4.00495487685753    7.10131681009992
C         7.12236552450100    3.24501863544483    5.38383689398254
H         7.84581116953888    3.63050650252466    4.68094509899751
C         6.01956910696626    2.54802834401875    4.92101712155062
H         5.87955648377164    2.39597093543559    3.86030647731870
C         5.08010150189699    2.04979937900612    5.81427369724930
C         3.84536997877441    1.36196489899620    5.31728153206911
H         3.40867543507755    0.71715426769311    6.08107258334018
H         4.02090519358874    0.81042215416975    4.39333619456328
C         1.06420609096735    1.72446421084229    4.97135514985385
H         0.93740779582115    1.29485845613559    3.97821877466478
H         1.12280617030260    0.95448864351172    5.73785859253209
C        -0.02918466792537    2.72495007179785    5.28875576922325
H        -1.02547909460157    2.27927256749056    5.14234846960488
H         0.07167897241541    3.04821001906795    6.33437797874882
C        -0.50191689173269    5.00206933923610    4.77967611702572
H        -1.45793125531169    4.77040014146401    5.26669380088166
H        -0.69324506649268    5.54800128601025    3.85108645172925
C         0.33537819562297    5.90362958901841    5.69282739234344
H         1.32424798515876    6.07391521943605    5.24256731006727
H        -0.18948433656307    6.86273139769917    5.80697700304892
C         0.87935492310045    6.20446556694837    7.97339324648763
H         0.02193294129670    6.84814487312951    8.23472342526618
H         1.69780478559202    6.84381510784560    7.61075399723061
C         1.30800943995031    5.41793389666516    9.20474038369191
H         0.64124463614845    4.56362416457374    9.33996060979141
H         1.29256162448146    6.04502260877699   10.09641637877776
C         3.97201610370083    6.24871623257352    9.07972359967963
H         3.89986210787994    6.70605732741214    8.09308557674332
H         3.51878986986192    6.88404335287112    9.84371928278048
C         5.39975611246676    5.95113736954114    9.40954477292024
C         6.40900740170442    6.30426682167003    8.52435543386773
H         6.15250623397486    6.75276665917393    7.57660114876145
C         7.73404416565457    6.07623581622414    8.85348230182306
H         8.51415382158437    6.37355313910994    8.16799793012784
C         8.05971220041968    5.47127612102631   10.05509779431199
H         9.09367356398316    5.28857990229709   10.30866320011112
C         7.05472694933580    5.09582689467043   10.93194540967301
H         7.30335627164750    4.61593390650106   11.86720494454576
C         5.73155943694569    5.34053339414223   10.61401590405920
H         4.94620859488617    5.05165040370665   11.29800102522671

