22
CSD_code = FUFCOY | q = 0 | S = 0 | Stoichiometry = C7H9Br4NTi | MND = 5
Ti        5.50264729628074    9.43821842146251    5.55456156273878
Br        4.19291261373320    9.10846217229415    7.61842375203371
Br        3.96506450383390   10.98798364202887    4.57937780279040
N         5.50247997884284    7.35082908730334    5.55485776839291
C         4.52120022977141    6.68148998184987    4.92987779639236
C         3.45491939925250    7.48144294296092    4.25123286743903
H         2.92790295068462    8.11664480558145    4.97442478907626
H         2.72525433025796    6.82125779020487    3.78880599032838
H         3.88646290920278    8.11396648903584    3.46512759144814
C         4.49778865432073    5.29258832863013    4.91446890164003
H         3.69882970197901    4.77902702500979    4.40499255577882
C         5.50255045337408    4.58828748564981    5.55475056692324
H         5.50256096146853    3.50964206225105    5.55473516681649
Br        6.81248731725108    9.10930461567611    3.49073351558838
Br        7.04017490334246   10.98799698143808    6.52984062226765
C         6.50730668834658    5.29259028026071    6.19503939264761
C         6.48384649990468    6.68149188845086    6.17970369061364
C         7.55018859136645    7.48145024478049    6.85824449612580
H         8.07709214026075    8.11673083875064    6.13504975563048
H         8.27993164394618    6.82126975161348    7.32053782624872
H         7.11870260337339    8.11389385164708    7.64444361743875
H         7.30629562920607    4.77903131311992    6.70446997164036

