58
CSD_code = FUFGUK | q = 0 | S = 0 | Stoichiometry = C29H23I2NP2Pd | MND = 4
Pd        0.04405688064442    0.05161772561871    2.51903197034415
I        -2.28895935320629   -1.02837601097066    2.85818132712731
I         0.95247007049286   -1.69195167874918    0.80811920570458
P        -0.30517263349569    1.49928440327885    4.19742034726421
P         1.93213191179923    1.14134674447068    2.10769897117008
N         0.74844642071734   -0.30088674247994    5.14178544207650
C        -1.44549013028316    1.16850540937568    5.55868951025603
C        -2.48148397628653    2.02608646201671    5.90352923319050
C        -3.35385737333953    1.67662780886035    6.91962954196806
C        -3.21207898530265    0.46735867306762    7.58191433069698
C        -2.20618597063431   -0.41053863190111    7.22222309720076
C        -1.31972859401206   -0.06796325094469    6.20997830318109
C        -0.27524127633166   -0.95291529151139    5.70439931589597
C        -0.38520886483917   -2.34190353300545    5.67334732576209
C         0.57725761343381   -3.06178639465218    4.99145440695918
C         1.66738111657501   -2.39066917498512    4.45260958544477
C         1.74053483403938   -1.00176575735110    4.56343051386113
C         3.03188011696971   -0.33777511919008    4.23320508149537
C         4.12064670309338   -0.73442888457404    5.01129610994795
C         5.38334419172322   -0.22287534371750    4.78467441491497
C         5.59458705601459    0.68681211893982    3.75874248335232
C         4.53273789451447    1.08172063298276    2.97280397045424
C         3.25063315090915    0.58393768736395    3.20743788356981
C        -1.01001473426927    2.95938911638882    3.35632183890169
C        -0.95619922543303    4.22758778851723    3.92827020617046
C        -1.45675294717095    5.31713465178382    3.24223106653850
C        -2.01049945019193    5.14988324726327    1.98232771069495
C        -2.05152595376535    3.89469703945959    1.39879249349187
C        -1.54452733811998    2.80296289301994    2.08025280301981
C         1.97815479347050    2.95187448510879    2.22079700743622
C         2.46310206563095    3.65037806293630    3.32019166414426
C         2.38616127594027    5.03187551614764    3.34196535366690
C         1.82309821957315    5.71669132266553    2.27844839156062
C         1.33865510322696    5.02331881032543    1.18014124509053
C         1.41300148279384    3.64529127308107    1.15176810984666
H         2.57657993611735    1.01425346357356    0.87751305504212
H         0.73152719614676    2.16373905098081    4.85500969584883
H        -2.61658689616871    2.95731919488086    5.37243973799728
H        -4.15614827204895    2.34785468673917    7.18690259088224
H        -3.89940026677085    0.20123315751414    8.37051002314195
H        -2.10241332553823   -1.35706596250104    7.73081239564183
H        -1.24604468467186   -2.82522486723493    6.10459144875004
H         0.48607317707566   -4.13045690689963    4.87470523133916
H         2.45209035409427   -2.92543078479304    3.93833594251670
H         3.96322128518871   -1.45111532195392    5.80477820250150
H         6.20854242545261   -0.54254295919800    5.40283504908793
H         6.58332836439811    1.07692896593177    3.57086013331917
H         4.67836141662018    1.78167564580691    2.15986002560961
H        -0.51310411927792    4.34855785861290    4.90972579492249
H        -1.41391912877408    6.30018194747560    3.68847174169400
H        -2.40335523130162    6.00394751995816    1.45075330859675
H        -2.47323861547674    3.76767182119720    0.41275134922027
H        -1.56525340178538    1.81194326665576    1.60411839716438
H         2.91396868564409    3.11613463254685    4.14677348731102
H         2.76759754051070    5.57481138529219    4.19449201959218
H         1.76317332244550    6.79435528673103    2.30355670631035
H         0.90255402920971    5.55773496498668    0.34958161604484
H         1.03369211398335    3.08784789506646    0.30171178511549

