58
CSD_code = FUFHAR | q = 0 | S = 0 | Stoichiometry = C29H23Cl2NP2Pd | MND = 4
Pd        0.73961084151804   18.36726239625148    5.00546835718348
Cl        1.00786559324412   20.16631541479262    3.63059641571424
Cl       -0.62803296806364   19.39963006740939    6.51010131689776
P         2.13832252287025   17.63106572587663    3.45602560737193
P         0.35773304762384   16.79204383887791    6.51329493069730
N        -0.79435285521943   16.54602261398958    3.61341824116926
C         1.44765176518646   17.84094204137507    1.79807200989640
C         1.99691697562917   18.72348929800272    0.87524717809646
C         1.39110543310920   18.91543293774957   -0.35212500390348
C         0.22708301454272   18.23179326823230   -0.66325356880264
C        -0.32533315680742   17.35379495700309    0.25130020266006
C         0.26940953979345   17.15331304438201    1.49349197800496
C        -0.35430792452000   16.16904003176246    2.40894207046174
C        -0.52841598236946   14.87393740320769    1.91800556185024
C        -1.18932668449282   13.93997225511905    2.69257001115895
C        -1.69990698936103   14.34741056709162    3.91006655134679
C        -1.48525979478540   15.65919360791670    4.33613036019847
C        -2.13509178649495   16.06475430728121    5.60473727206873
C        -3.51609141947651   15.92594617063560    5.70470912481936
C        -4.17515282104868   16.24927254000943    6.87674445663353
C        -3.45938763754776   16.70420566397459    7.97214112487642
C        -2.08671755188423   16.84260367393139    7.89046311027267
C        -1.41850552187667   16.51982098329994    6.71512549434001
C         3.78870915001341   18.35545453192433    3.51196520483966
C         4.77670388495530   18.00513593213971    2.59633798787252
C         6.03599618085803   18.56631563098538    2.70091963594618
C         6.31549450508802   19.46252338485714    3.72135689058256
C         5.33893378853226   19.79677697056183    4.64614680445473
C         4.07601272656080   19.24286183122385    4.54464388892120
C         1.10527608775287   17.05950970911727    8.13168678873466
C         0.93053927222216   16.15871670685926    9.17823425187227
C         1.55257226260985   16.39090430281107   10.39093170326545
C         2.35668927113961   17.50832323072003   10.55722476314847
C         2.54677666557909   18.39618269469186    9.51020134119005
C         1.92360254412857   18.17263167799499    8.29612417606322
H         2.50336283597873   16.26741603599244    3.32146713239063
H         0.72453856394468   15.43538574835037    6.32615288952529
H         2.88762562323271   19.27603945210154    1.13767300288331
H         1.82092426502718   19.60653804662790   -1.06157892110808
H        -0.25532876768138   18.38695398185941   -1.61676621994698
H        -1.24232000356174   16.83241521551007    0.01506685568568
H        -0.13966113085986   14.61795834704905    0.94428846739908
H        -1.32383479697597   12.92589271807337    2.34544609082231
H        -2.25460958375917   13.66836251143034    4.53935117811498
H        -4.07577250422318   15.58464859978853    4.84520511646206
H        -5.24904462493873   16.15143027762424    6.93275269335071
H        -3.97215968815516   16.96233011770748    8.88652372288465
H        -1.52471162863813   17.22653491475401    8.72968704838834
H         4.55043990319301   17.29821224504494    1.80882037906805
H         6.80313535523664   18.30468117917476    1.98673900047154
H         7.30013315010590   19.90003041309612    3.79575118791037
H         5.56333927478210   20.49107462869744    5.44212867996073
H         3.28753555008984   19.50473204074255    5.25389377588573
H         0.30726250430346   15.28576500456923    9.03459331528827
H         1.41286653521228   15.69934478199238   11.20902557687492
H         2.83922242257884   17.68454986636363   11.50726410207034
H         3.17889429990143   19.26141478855039    9.64340723021842
H         2.04684046619020   18.86698967291527    7.46246145550326

