41
CSD_code = FUFJAR | q = 1 | S = 0 | Stoichiometry = C10H24Cl2N4Rh(1+) | MND = 6
Rh        3.07597651202422    3.44991282063115   13.00779867518535
Cl        3.97669215013014    5.15012031444376   11.79296419023196
Cl        4.70584955071068    2.11501346918568   12.14784303056039
N         1.75905558647451    3.12677296730640   11.45266068861054
N         2.40149100157487    1.73392911482290   14.11667648553348
N         4.28786108267860    3.75777830611728   14.64908816791416
N         1.58667272685652    4.85360370960539   13.67231910798108
C         1.51255129441454    1.72516557348429   11.07575629945550
C         1.03398614900787    0.83862074882775   12.23063659063453
C         2.10168993865608    0.55856989395540   13.28667949842633
C         3.49956594825449    1.46601575396163   15.06046481369939
C         3.94757557437878    2.77794604790267   15.69910698693934
C         4.36900417587843    5.13564240012128   15.16123753869461
C         3.01254132907448    5.75747577844260   15.51061652811587
C         2.13568628333902    6.06487043410502   14.29803636851397
C         0.82652957388352    5.17030302608135   12.45160219072494
C         0.51322362187053    3.87790236552190   11.70245277213829
H         2.24179649204907    3.57855424940169   10.66889478858833
H         1.56214291074006    1.95208145926667   14.65791725304336
H         5.21177370955468    3.50941618770076   14.28003736973830
H         0.94745582403188    4.42174241873608   14.34276606663804
H         0.76372643007969    1.69433412995795   10.27569905222451
H         2.44821012905382    1.31506193836238   10.68951936899750
H         0.74658341274880   -0.11897984810984   11.79545023182555
H         0.14067401904916    1.25301305889635   12.70304520118242
H         3.02765731543098    0.26290640484522   12.78992999972295
H         1.76719212277224   -0.26774252917012   13.92535291392771
H         3.19674153734412    0.75075833709794   15.83349182376637
H         4.32661799423418    1.03945883013621   14.48789724616262
H         3.13532486625322    3.18291557227518   16.30854289158914
H         4.80579961295406    2.59863751394068   16.35491870359237
H         5.00271510509612    5.15001830991360   16.05565768020694
H         4.84293233098675    5.74910412537926   14.39189756104144
H         3.21862363876864    6.70347255238390   16.01220649028378
H         2.46360832061084    5.13512002588867   16.22068499613021
H         2.73438236467517    6.58058623490054   13.54492108089388
H         1.31549926171793    6.72451166592874   14.60589988282427
H        -0.09916076100279    5.70821316787379   12.68541355549389
H         1.45853457284508    5.80755521239182   11.82850472061224
H         0.00379170743473    4.10772346461113   10.76093379303994
H        -0.15577541663578    3.25919479287498   12.30647739511436

