120
CSD_code = FUGBAM | q = 1 | S = 0 | Stoichiometry = C61H51CuN3O2P2(1+) | MND = 4
Cu        7.59205709295390    5.47036328822568    3.62621974805345
P         9.23871633822764    3.91947242811618    3.61333347563821
C        10.95031535190461    4.52710278015210    3.72730294558925
C        11.93906688935668    4.28662670162995    2.78359722909303
C        13.21924277321127    4.77132720373610    2.99389441688159
C        13.51531900956294    5.48976518480008    4.13934043672113
C        12.52624850844986    5.73849397762077    5.07962395594842
C        11.24669043689608    5.26497116062162    4.87145179382125
C         9.28878613978880    2.78856167069914    2.18420766954921
C         9.21110012392762    3.45174013747901    0.95063064440050
O         9.13580050179232    4.80682548379435    1.09088845316098
C         9.03284875645153    5.67333820905926    0.02602060834032
C         9.97297763669096    5.80399261081513   -0.97913696885921
C         9.79033208348002    6.79474374731130   -1.93322346028871
C         8.69917771749788    7.64541924172664   -1.87048081644891
C         7.76139477409953    7.51822720762417   -0.85767481319654
C         7.92255617570049    6.52219943629401    0.09108636180939
P         6.81954243759774    6.07544230250274    1.47973546996869
C         5.90388935923779    4.75825164869628    0.61145083005934
C         5.19323051483317    5.00415935705559   -0.56006256390794
C         4.57186209104126    3.95789031654113   -1.21534333409086
C         4.66713475602848    2.66643976983986   -0.71803484281891
C         5.38198246661826    2.41793206624361    0.44174733874224
C         5.99744941773999    3.46323922049923    1.10643801503109
C         5.65627317553703    7.46098410005516    1.58068444379178
C         6.18434369510507    8.72900042234442    1.82658549034823
C         5.34819116313111    9.78370583956361    2.13566023572865
C         3.97853377783527    9.58135037869408    2.21332162607918
C         3.44931597687435    8.32210210931026    1.98287512690513
C         4.28333358022715    7.26023410371307    1.68165858778483
C         9.14453453399693    2.74713687752405   -0.23687081300654
C         9.16305604576203    1.36111005745518   -0.19047723366384
C         9.22653439098751    0.69389435790107    1.02057434533571
C         9.27485002394220    1.40321915374758    2.21083804063165
C         9.23652036841265    2.78394060179522    5.03624067912033
C         8.15012555910581    2.82095779784461    5.90244044910232
C         8.10896274059209    1.98203435511616    7.00216320354846
C         9.15625302514842    1.10821324739005    7.24246318592270
C        10.24973589986300    1.08010040402710    6.38988334693969
C        10.29625951044854    1.91682230917539    5.29062111690735
N         7.37703115971277    7.34675600803013    4.50428622248171
C         6.13209579417156    7.52669167798619    4.97048075069532
C         5.18506905052499    6.42274336543762    4.75367082381055
N         5.72308522778696    5.23638254605246    4.45076780741876
C         4.93464593289339    4.18692805792046    4.26876726428256
C         3.55666724797079    4.25783748106472    4.35566912881721
C         2.98118794777199    5.48825685056260    4.63992164058723
C         3.80274508337128    6.58152139949255    4.84545186441683
C         5.75351663186161    8.68378716629047    5.63463300506750
C         6.68112015251854    9.70705968447435    5.84218674463146
C         6.31353408030715   10.94112775307701    6.52901831102310
C         7.23082276623224   11.60651106635935    7.34882565717273
C         6.87922517801415   12.76154926140938    8.00305603153137
C         5.59961689453341   13.31167017899876    7.85071090670870
O         5.36128866584849   14.44443585671028    8.53348261398766
C         4.08758268643936   15.06140708323210    8.44846401865610
C         4.11133672463836   16.31267224005362    9.31939183968498
C         5.05846252123245   17.37694524318585    8.76932441067120
C         5.09782473067164   18.60739223444449    9.66572892396150
C         4.68535718538175   12.66141050613493    7.02140581763824
C         5.04186186206517   11.49112707835052    6.38158211981212
C         7.96848867947214    9.49447513311758    5.35468322661181
C         8.27603977728424    8.31496040921928    4.68590496190357
C         9.62991097701564    8.19258674570395    4.11528554992434
N        10.59666533695032    8.82285473008973    4.78032578764450
C        11.81358055782195    8.82426289012376    4.27700211737271
C        12.14404582850088    8.22399974603266    3.06853615104408
C        11.14011561153739    7.57775295259859    2.36782574366832
C         9.86448233150780    7.55062530114137    2.90384125910634
H        11.71780373330404    3.71095940163645    1.89578886211214
H        13.99108209555187    4.57743175774543    2.26359000080503
H        14.51800893081224    5.85453640982608    4.30293041182671
H        12.75556709748945    6.29944462826167    5.97299435495567
H        10.46278263444442    5.45464235093911    5.59422094835229
H        10.83309192596778    5.15164465247413   -1.01358901002595
H        10.51237570379787    6.90446894993283   -2.72748167395026
H         8.57502923929938    8.41311004229126   -2.61864732191034
H         6.91202376908928    8.18411867259207   -0.80902600443233
H         5.13041268101034    6.01044986834811   -0.95109984432448
H         4.01630926614721    4.14715256093943   -2.12162438014921
H         4.18534314677889    1.85340198245395   -1.23937005503311
H         5.46459841552244    1.41205615520894    0.82556746907477
H         6.56786260795302    3.28486127388538    2.00996494353817
H         7.25554996824282    8.88010024324664    1.77604598655304
H         5.76312258194316   10.76310823767302    2.32321261025051
H         3.32480314049335   10.40621996343730    2.45370132246861
H         2.38260092797587    8.16385735066319    2.04404652671863
H         3.87147202631898    6.27275106602798    1.52019053009783
H         9.05734878049215    3.26624877069234   -1.17959523569065
H         9.11409898215816    0.80263733921018   -1.11233128811562
H         9.22906573321270   -0.38477756969634    1.04097065196066
H         9.29853035786622    0.88096225348289    3.15576823517116
H         7.34975163408385    3.52476809893079    5.70953317423182
H         7.26450129098787    2.01297897227941    7.67461959266392
H         9.12636654680478    0.45338621219439    8.09998900819338
H        11.06929344374265    0.40504812627098    6.58606498908793
H        11.15349611336969    1.90674643276670    4.63116798661121
H         5.43078043117234    3.24928490669129    4.05804509668019
H         2.95331924132268    3.37770263937296    4.20491864660127
H         1.90886214304035    5.59230728504171    4.70348875704644
H         3.37290607974247    7.54704378998908    5.05299018391180
H         4.75791111285176    8.78243150268868    6.03325752513915
H         8.21552895142738   11.19008292965366    7.49629290343120
H         7.57657321607372   13.27021968104144    8.64916469581113
H         3.31440785395938   14.36711983969496    8.80463578754300
H         3.87059552734304   15.33098133038518    7.40594618665559
H         4.42634457374316   16.02969142680053   10.32496415129477
H         3.09731161208239   16.71190553874866    9.37770157380008
H         6.05919820321143   16.95008699029100    8.68657059991875
H         4.73284909189745   17.66705761589228    7.76740976590705
H         5.77145615525251   19.35563169885904    9.25609769035903
H         5.44393406372537   18.34310843196839   10.66216156750455
H         4.10739762198779   19.04857690882178    9.75328113534865
H         3.69584286323350   13.06202839879257    6.86910055057355
H         4.32590563862867   11.01628526287472    5.72617597224796
H         8.74035600169871   10.23866752613458    5.45968878227889
H        12.55730445624244    9.34470328955284    4.86562101692893
H        13.15133693222093    8.27200066709566    2.68770283847096
H        11.34058929493191    7.10878954749648    1.41570866935886
H         9.05044471516046    7.07061667444828    2.38356798706923

