43
CSD_code = FUGHEW | q = 0 | S = 0 | Stoichiometry = C12H26I2N2Pt | MND = 4
Pt        8.53646220974565    5.85468538304068    4.94919537456792
I         6.67412504969188    4.38043406832588    3.93683742450472
I         9.19577236547422    6.89438327237325    2.67210994011921
N        10.19783855269157    6.98067804484600    5.85957641211143
H        10.83463043090180    6.37260518079820    6.37815425341423
H        10.71164908055160    7.30549883589881    5.03425349633992
N         8.13051052547974    4.98690147799020    6.92515199993535
H         8.31513297864756    3.98798176346719    6.81268984632803
H         8.80413880540760    5.34800704148439    7.60214818712321
C         6.77488358772203    5.15777483686294    7.47672295818534
H         6.09310704878054    4.56058446312655    6.86313111168392
C         6.35105387405705    6.62045953577317    7.37948864268354
H         6.41003067100052    6.93724978595863    6.33107598392837
H         7.02771479027839    7.24343742188933    7.97105281159326
C         4.92581269275134    6.79018717646454    7.89265871340462
H         4.63468357040596    7.83983113676432    7.82965982950709
H         4.24626216068890    6.21500710012793    7.26149856939864
C         6.68698854391078    4.67557311744309    8.92510636486904
H         6.98151442298641    3.62464829412786    8.98981411731841
H         7.37098719068476    5.25886586794783    9.55070713156185
C         5.26017915585155    4.84553423655958    9.44173771973436
H         4.58892922735118    4.22012140135757    8.85012043578752
H         5.20299856009757    4.51179516268167   10.47936017720636
C         9.85280826814224    8.15669680929285    6.66938729438508
H         9.32530987318143    7.80946790218665    7.56820668241278
C        10.69374614643002   10.14184964835151    7.94827111967797
H        11.58587199710647   10.69866371602654    8.23934651522548
H        10.20315354014354    9.79820433982380    8.86269440599522
C         4.81961338941575    6.30265367144594    9.33497611618832
H         3.79111890989920    6.40246664833646    9.68424262372799
H         5.45106459923522    6.92184350282803    9.97760892816531
C         8.92824875158337    9.07382320676341    5.87166309604473
H         9.45171608508231    9.42391845933598    4.97945029088352
H         8.04745207950356    8.51181810962341    5.54105598830723
C         8.51019812411253   10.27056451288424    6.71685933322383
H         7.95018561124547    9.92835541327314    7.59093683254706
H         7.85465843572140   10.91827954428949    6.13423558736534
C         9.74262378706143   11.04781916691807    7.17126437873076
H        10.25847136670966   11.44882148492165    6.29652225028713
H         9.44247945389477   11.88925514283005    7.79750230081611
C        11.09770052255698    8.93388695359352    7.10573884251934
H        11.76637332010302    8.28648777021309    7.68163769755450
H        11.63820024371288    9.27427939175113    6.21874821463673

