29
CSD_code = FUGHUK | q = 0 | S = 0 | Stoichiometry = C10H12BrMoN3O2 | MND = 8
Mo        0.45277405913106    3.71149729046533    5.16437438975464
Br        2.53659644401098    2.17365265346354    4.76867723029096
O        -1.92125339180137    5.61641995847816    5.60627412749538
O         0.42079337000471    3.84826420165215    8.22281958686577
N         2.03342257656785    5.69794311627343    3.65630552009654
N         1.09648435524094    4.74456458271495    3.51794084492820
N         1.88510394695618    5.10417619746970    5.77434599334802
C        -1.02717790119860    4.91850884590840    5.41482333619430
C         0.23281538444386    3.46157253973475    7.11737375324260
C        -0.49341020186588    2.09050352911424    6.73910192407107
C        -0.57426698010860    1.77014826141442    5.27849061971902
C        -1.44715319675185    2.46684590057125    4.46346962448789
C         2.38213491605842    6.21849948872813    2.44735365150211
C         1.63464041306098    5.55397024531731    1.50740225256207
C         0.84548029105333    4.64182987348033    2.22136449142765
C         2.48155425309342    5.88323050518463    4.93939511037703
C         3.55626739918206    6.87922765985018    5.21644328810570
H         2.20006873347693    5.16791833191581    6.74078605454334
H         0.05878721605942    1.31307574716712    7.28052676938744
H        -1.49550867957602    2.20979181270224    7.17388604599249
H        -0.07558944392160    0.86694887747114    4.92239040746988
H        -1.55877503989431    2.13573905191435    3.43546250322118
H        -2.33641738232795    2.93113802995695    4.87672665362687
H         3.11165881269079    6.99474023618002    2.34687482685796
H         1.64994816856048    5.69884232997758    0.44705473568708
H         0.12313196452371    3.93950051826660    1.84756339711024
H         4.47274593441285    6.59653784854645    4.69790258477694
H         3.25889132240145    7.86950953470004    4.87190206580898
H         3.75765265651443    6.92140283138508    6.28376821105461

