75
CSD_code = FUGHAS | q = 0 | S = 0 | Stoichiometry = C32H30N8NiO4 | MND = 4
Ni       -0.02826760341225    0.21034230003749   12.88040533181443
C        -0.46539429764562    2.17612764682795   16.72829327836128
H        -0.33978079646058    3.12825451635323   17.20034532656010
O        -1.50357093263244    2.52167792963166    8.89333343820374
O        -3.84141073312356    1.63024969268222   12.56513013262233
O         2.59331605104074    3.35551747821416   13.10880255207601
N         2.15244511994973   -1.61126945562018   13.86339716583750
N         3.48836070229322   -1.72987241203381   13.76282345463803
N         2.78092454274032   -0.00850451990203   12.62121896623060
N         0.85969245716608    1.87606057035133   13.26195082806688
N        -1.62461915920246    1.15149159944061   12.28453431412602
N        -2.31336244746558   -1.44093100838532   12.80027581361444
N        -1.93430661699903   -3.13282664887075   11.47603497504482
N        -0.82198577530096   -2.39296300831033   11.62596633669416
C         1.67290293246511   -0.56618472300184   13.17554564151796
C         3.85282912398534   -0.74371391276092   13.00614747910588
H         4.86431066433877   -0.53966038883398   12.72230202819456
C         1.43625404652030   -2.46697859873898   14.76636373390031
H         1.76667440852864   -3.49710072163506   14.60473072842871
H         0.37072365341094   -2.38238705928803   14.52137308296018
C         1.66327453316409   -2.08175692568815   16.21259324928946
C         1.46587403027203   -3.03303113205690   17.20503573380780
H         1.17706096280033   -4.03806931292129   16.93183248962415
C         1.63498473233222   -2.70121132963787   18.53680188068595
H         1.47783839579385   -3.44914336641084   19.29953933113224
C         2.00981384354540   -1.41574656866626   18.88990070662517
H         2.14575509029470   -1.15743233951616   19.92908370055890
C         2.21187415639728   -0.46532240171431   17.90554777403400
H         2.50207491668938    0.53976879477290   18.17108212996698
C         2.03663182753084   -0.79517748808488   16.57295478900739
H         2.18987603293910   -0.03581758948919   15.82014800340798
C        -0.90315033305280    0.97417023138388   17.33758113246827
H        -1.17189592525218    0.83296754778872   18.36420323698411
C        -0.90714994746937    0.03562871491733   16.35717792390656
H        -1.14385160505451   -1.01065628123882   16.37257515501140
O        -0.50541625261339    0.57780121778314   15.18787080993542
C        -0.23859164262265    1.88177119114470   15.41786185212274
C         0.19768234064146    2.71013701874013   14.25301557781582
H         0.89328665612605    3.49122061814678   14.58575712071803
H        -0.68309808874519    3.20005302651504   13.81453979011321
C         2.04222455082556    2.29407493375270   12.84651542593490
C         2.78911344653823    1.25871142197158   11.94872853084088
H         2.29163588625171    1.18770080434896   10.97848814555329
H         3.81741152159260    1.59393173209300   11.80727687229117
C        -1.01017560443217   -1.33649421992596   12.43266503542163
C        -2.83340647445424   -2.53422178198880   12.19124311133191
H        -3.84753407480625   -2.86153854759854   12.29156348551226
C         0.35488208187538   -2.76936869558861   10.88444313946095
H         0.24333906432545   -3.82735638870541   10.63842137504158
H         1.23138915121831   -2.63527053348278   11.52631502365826
C         0.52725442854034   -1.95866936243096    9.61943747937068
C         0.59584060476326   -0.57349190923844    9.67838728767605
H         0.45522529096476   -0.06717742692254   10.63605474989120
C         0.81381709944114    0.16738706311653    8.53137022273050
H         0.87790046320512    1.24346121379846    8.58837608934300
C         0.94396751776762   -0.47102361375168    7.30952395714160
H         1.10914735014469    0.10674260608594    6.41302773550865
C         0.85320335157833   -1.85011993981817    7.24071514229316
H         0.94276246136834   -2.35165812281458    6.28879152371034
C         0.64917136871609   -2.59252586807592    8.39136813139847
H         0.58597743316266   -3.66953165641263    8.33368444715962
C        -1.90331705532479    1.88659795777478    7.77471885192622
H        -1.70689767006955    2.37280450292483    6.83994622390970
C        -2.50209185564387    0.70856998032778    8.08357830119592
H        -2.91357460965513   -0.00734355901585    7.40182672957368
C        -2.47011460510408    0.61609789127151    9.49719114011119
H        -2.86768072950997   -0.18078251618884   10.09139527051375
C        -1.85425113657539    1.74848048655605    9.94235845296500
C        -1.53460776820679    2.23855604126267   11.32157652068985
H        -0.53534068559844    2.68455532151353   11.32104911244617
H        -2.26491868652606    3.01594412071262   11.59532546642023
C        -2.85275380679339    0.92838992924725   12.72808288045812
C        -3.02613223239564   -0.41697280073708   13.50208236577689
H        -2.65300454231808   -0.30669477969116   14.52118474643041
H        -4.08947059884707   -0.65904718632064   13.53241003107268

