20
CSD_code = FUGKAU | q = -1 | S = 0 | Stoichiometry = C8H3ClN2O5Re(1-) | MND = 6
Re        2.41006390654397    4.53688021622985    4.39889441075445
Cl        2.49720417701135    2.25647193698789    5.04634295148470
C         2.87688222627328    3.03538607430816    1.89850716593736
O         0.69576485705957    2.66419878568862    1.04446221912979
O         0.90995564308320    3.84705140503004    2.91979232601003
N         4.82184514508685    2.10408083163658    0.89318533511021
N         3.58554897822116    3.72158163616739    2.80040933446430
C         1.33976761302383    3.17764810571024    1.95018650679558
C         3.87911328995849    4.99000946915763    5.57350748169033
C         5.51580129671634    2.79388640491869    1.79018237600894
H         6.59201202902721    2.69169836355129    1.74764763323107
C         4.91283779084592    3.60169951871868    2.73850088026319
H         5.49492165990361    4.15528931984847    3.46409726261877
C         3.50751882589260    2.23356177755951    0.95329008604392
H         2.90997051866691    1.68609461729109    0.23786563649492
C         1.09066419004140    4.86555514665482    5.79195777568963
O         2.27987286599608    7.37704127263627    3.18562217668206
O         0.27162278105804    4.94178766485962    6.59088207744597
O         4.78946828790771    5.22256677765725    6.24698594089527
C         2.31486391768256    6.32081067538680    3.64838042324975

