55
CSD_code = FUGLOJ | q = 0 | S = 0 | Stoichiometry = C26H22N2O4Zn | MND = 5
Zn        2.94498155716821    2.43575204066389    1.89615542419829
N         2.47534799555036    0.58774674162822    1.02700651654056
N         3.72688776729287    2.68952834961672   -0.09486576094638
O         4.96583028564462    2.11949805940243    2.34214146227843
O         3.35566666926904    1.61575810204349    3.72491578402214
O         2.61394921951399    4.30940165804519    2.60418305581512
O         0.96984103801318    3.09072843961301    1.85695270238472
C         4.57774781393642    1.71061424077408    3.45938737753497
C         5.58038442602849    1.30627515956146    4.48497942716275
C         6.93673295248088    1.33658460115887    4.18074294932795
H         7.23846911026682    1.65770104780681    3.19518212373489
C         7.86675278955601    0.96288311974342    5.13288271524409
H         8.92116433995932    0.98646820638331    4.89756573288501
C         7.44753486588564    0.56006777927592    6.39098579484907
H         8.17584795474324    0.26941394333728    7.13462875475264
C         6.09639249986962    0.53189259308821    6.69816963382299
H         5.77321983167930    0.22067266178116    7.68111704038916
C         5.16284009635233    0.90348447112128    5.74857100524647
H         4.10583829373383    0.89408309222927    5.96698384713333
C         1.38787601720094    4.13599287735447    2.40486325245891
C         0.42409456381729    5.19747201898901    2.80752495615644
C         0.88104164411856    6.35500718133497    3.42812329522137
H         1.93912461537105    6.46101107780414    3.61260079392517
C        -0.01626492555575    7.33914317463939    3.79904166063652
H         0.33715784855064    8.23865001782817    4.28208718352011
C        -1.36993413349040    7.17273883130184    3.55258024927077
H        -2.06983729813221    7.94301672939151    3.84346180982786
C        -1.82826340395078    6.01983621659131    2.93481626293184
H        -2.88442838872724    5.89265001545873    2.74545547938347
C        -0.93485863183505    5.03285197414118    2.56248831647736
H        -1.26836194668821    4.12670776187557    2.07993222416880
C         0.89673304006313   -0.00172969987420    2.74440005407888
H         1.60809626088777    0.16629798199225    3.55123487750452
H         0.20228489878047   -0.79168814089060    3.01580498884535
H         0.36602811050451    0.93878872578487    2.60637367839115
C         1.63164734710976   -0.32359546596428    1.49785450779905
C         1.44289824426424   -1.53241446674112    0.82497694888454
H         0.76021239622657   -2.26677956351722    1.22296163236757
C         2.12645419344451   -1.76784144060441   -0.35183005170539
H         1.98639872388175   -2.69100257913750   -0.89486069601841
C         2.98703438565550   -0.79596209286030   -0.83565443969688
H         3.50402243452312   -0.94090582001286   -1.76990660824448
C         3.14243630538438    0.37954899960330   -0.10605387027241
C         4.01532045020003    1.47329812921037   -0.56095502613584
C         5.07877220013591    1.25191288020591   -1.42963650964994
H         5.32656964968945    0.25600316800232   -1.75850229709214
C         5.84396533761372    2.33412239004132   -1.83114604710472
H         6.68793951447366    2.19245719286731   -2.49012292432076
C         5.50703760340845    3.59342555741706   -1.37624842750004
H         6.07259998168664    4.45999871338482   -1.68132108063589
C         4.43536198769463    3.73935106653841   -0.49448640200797
C         4.04093992645005    5.07663779823193    0.02068432192432
H         2.99529448934055    5.27039861096744   -0.21325658630182
H         4.66205678837732    5.86230256984195   -0.40036758019237
H         4.12602026257025    5.08104330152487    1.10609646672273

