59
CSD_code = FUGQUV | q = 0 | S = 0 | Stoichiometry = C23H28Cl4N3Ta | MND = 5
C        -2.75472306680837   15.50707752356639   12.85965934484751
H        -3.33705909526767   15.36785081190786   13.76531262696858
H        -1.95255480920003   14.77095526977864   12.86870680914697
H        -3.40362421480395   15.27228852947177   12.02110638535857
C        -2.17086361551175   17.70406420613939   15.02070642925062
H        -3.22298413002786   17.57187614341312   15.25623366053346
H        -1.86408610722632   18.64893458495108   15.47002147968964
H        -1.63051902954374   16.91036721335049   15.53565736692751
C        -4.57197198619601   19.05436420010237   12.17138606621374
C        -5.42864813771497   18.17209846589401   11.24275906696911
H        -4.95672040978350   18.08949699544238   10.26787494875559
H        -6.42211062584979   18.59720761227941   11.12653334444790
H        -5.50714980372815   17.17821096139644   11.67417012371592
C        -4.39225104763341   20.45239651362049   11.54702052662474
H        -3.73830524696197   21.05028985243279   12.17717340449854
H        -5.35375613809076   20.95071397080882   11.45584405418496
H        -3.94480778485797   20.36454492744011   10.56172377973204
C        -5.28523522808501   19.19576745801713   13.53118322296953
H        -5.41156359342686   18.21120213883619   13.97146377571976
H        -6.25806709126217   19.66305089068869   13.40335191999601
H        -4.67821863321022   19.80017632875886   14.19926880573964
C         1.17916032148465   15.82024603155681   12.35450768921580
C         0.87551078972356   15.32714941773214   11.08881377911167
H         1.63877499284057   14.68132536044309   10.67690797458156
C        -0.15224381865068   15.64008220052588   10.19366680526153
C         2.58267910821882   15.48735182099754   12.81513360740817
H         2.91104587382021   16.13119622065039   13.62880376901874
H         3.27491496256466   15.60362215772729   11.98300606613171
H         2.63557706223082   14.45242059792015   13.14984747679637
C         0.01858650274677   15.08835049873624    8.79786040200676
H        -0.40884366481395   14.08753582602690    8.74661209231087
H         1.07297045354144   15.01948963489732    8.54105266178195
H        -0.48398558895149   15.71269803149456    8.06144515411630
C         0.77422077202481   17.02085457762166   14.32908768273505
C         1.07337057488770   16.15794648251220   15.40006639402977
C         1.44921284013169   16.64176987090553   16.63964523699377
H         1.67299905705468   15.94300805493231   17.43020852295347
C         1.52013583494440   18.00596854572597   16.86513869220090
H         1.83018775932175   18.37842893183560   17.82760190038784
C         1.13910117896007   18.88938004690617   15.86805525379320
H         1.12112415410017   19.95302513631457   16.04298428888205
C         0.76172886107084   18.38943349616142   14.63963027086557
C        -2.04724964157458   16.90750049272438    9.56189554157610
C        -2.10974010191622   18.29560247308309    9.36071111164780
C        -2.94743157804278   18.88123608834038    8.43664641036152
H        -2.93493478137452   19.94961624886614    8.29305736679781
C        -3.80336239718951   18.07256407943427    7.70191941536900
H        -4.46218007385624   18.51149887537448    6.97044789576236
C        -3.83960661947071   16.70864281731722    7.93319203938170
H        -4.53716554964190   16.08048589745595    7.40218533453648
C        -2.97703703895334   16.13470636646676    8.85176383282645
N        -3.32570540989276   18.44174277831911   12.37476997629724
N         0.39702648344081   16.61263051770957   13.06993331504390
N        -1.13838923918421   16.44905808595995   10.48686565717028
Cl        0.84300816640600   14.45425614036680   15.19780611614219
Cl        0.09976362480848   19.42732607323381   13.42720409434535
Cl       -3.09832767428962   14.44606304023958    9.18449194629615
Cl       -1.10672822868099   19.22845746435889   10.40700598535211
Ta       -1.81554817290122   17.56209502058534   12.74197109837977

