60
CSD_code = FUGTAE | q = -1 | S = 0 | Stoichiometry = C32H22N2NiO2P(1-) | MND = 4
Ni       10.10551710698706    7.57576279765905    3.52941612554505
P        12.13955276590886    7.34193915127438    3.99515540306470
O         9.86935505872008    7.39700291685363    7.57233408404175
O         6.76541318965158    7.91990104910594    1.37202248920977
N         9.49476601098782    7.03918044056696    5.32176472563297
N         8.29794109752988    7.69201566652553    3.10175825383689
C        10.32921959152565    8.26333747118908    1.74828412033987
C        11.45989070265636    8.71679265705081    1.06843425355690
H        12.42591146399251    8.76253938166774    1.56361115532795
C        11.39341262863093    9.13605979881560   -0.25546930507751
H        12.29636838584176    9.47674413535683   -0.74836335513350
C        10.19519552499190    9.12039132793180   -0.94471446400638
H        10.15555877531259    9.43985220465600   -1.97847873158255
C         9.04580090850998    8.70988689428319   -0.29087976892765
H         8.08261404885669    8.71017391021048   -0.78268237125069
C         9.11551601341908    8.29840353162247    1.02877563733920
C         7.90605185395135    7.94089532222745    1.83110255974351
C         7.44412820547321    7.45601827459584    4.16878020617549
C         6.05463579703926    7.51101801171471    4.12041591157234
H         5.56893842334306    7.75148766515272    3.18896884080359
C         5.31134801663375    7.24605518912008    5.25724393741180
H         4.23043804268912    7.28967511207548    5.21111559462718
C         5.94441442117152    6.92115101433822    6.44389565345185
H         5.36090666012285    6.70336972379401    7.32984223297587
C         7.32637649186637    6.87196597230907    6.51229570423611
H         7.80473244533921    6.61954907158528    7.44510025922893
C         8.09652551144529    7.15100157925363    5.38831960687585
C        10.20718938343751    6.97821921002307    6.46205732569929
C        11.50273592862630    6.18967276586656    6.40390343819462
C        11.74039474106694    5.37736299785590    7.51013990250188
H        11.03228297297480    5.41150225953886    8.32552262149755
C        12.84589764458297    4.55138824880259    7.56915731388151
H        13.00572956978471    3.92050058604975    8.43298677817332
C        13.74790875140075    4.53037453091978    6.51784144627440
H        14.61439547344065    3.88358566542202    6.55299662029617
C        13.54340113317363    5.35014976128526    5.42272585917467
H        14.25443114978796    5.34199260737060    4.60709971980076
C        12.42955116601231    6.18158054558482    5.36086858671781
C        12.92207386880048    8.84170090299643    4.67948580941380
C        14.05473718788851    8.81599269973736    5.48637038570387
H        14.51864831551815    7.87119916033170    5.73576054323659
C        14.57510963472515    9.99822220684851    5.98102181444906
H        15.45608739515706    9.97750500060858    6.60804322857367
C        13.96626583596804   11.20710081037626    5.68332672550768
H        14.37578263945204   12.12728795950719    6.07666114475331
C        12.82648482813613   11.23503431818051    4.89644711504168
H        12.34180580458589   12.17595566809647    4.67860089398370
C        12.30404250949965   10.05536234014225    4.39866595666610
H        11.40120604876734   10.05067128706712    3.79530138785966
C        13.35222084302415    6.73218218728207    2.77118109803905
C        14.63491592288087    7.23136512093819    2.58757678920240
H        14.98837182564577    8.05417410770087    3.19356803631806
C        15.45685181148533    6.68197332562163    1.61810602481366
H        16.45467375769803    7.07430609234389    1.47579196603548
C        15.00605707705590    5.63725951168011    0.82905247290386
H        15.65260826966931    5.21390035570658    0.07306554173107
C        13.72209365524491    5.14324398990683    1.00105265765129
H        13.36455547659798    4.33668195681409    0.37704641117474
C        12.89891381630826    5.69270862640227    1.96397842279220
H        11.88244641900689    5.34117292205588    2.09774720291692

