97
CSD_code = FUGVOU | q = 0 | S = 0 | Stoichiometry = C47H43ClCuN2P3 | MND = 4
Cu        8.41120125780884   10.84084102368529    6.61752715724068
Cl        6.36988220005724   11.00337889737396    7.32042802341614
P         8.89633351476976   10.30073987249792    4.39012114528936
P        10.39410668357087   12.50692895974255    4.82517119524525
P        10.53724149053110   11.33041079968215    7.29357734854608
N        11.46873954348058   11.93219782032136    3.63663147400190
N        11.63160326865792   13.47513116597016    5.47882785280826
C         7.90714228456562   11.29623128353421    3.22919341298020
C         6.88089811906241   12.05530276630557    3.78425503168933
C         6.06764907050914   12.82109730184052    2.97195166280921
C         6.26860852264808   12.82720790245473    1.60113117783164
C         7.27062329882336   12.05168787360219    1.04323585234414
C         8.08975271767409   11.28303884061799    1.85108119739705
C         7.84538310477055    8.79115867167519    4.39912707398112
C         7.03635818999877    8.40176609125525    3.33538640371319
C         6.21611911430428    7.29543775139196    3.45838519468892
C         6.19156694176697    6.56957095174613    4.63833985871521
C         6.98907457418246    6.95410772054819    5.70297558615963
C         7.80625234569085    8.06250153357296    5.58377020031495
C        10.31051333850546    9.79582029739967    3.34247167915733
C        10.33803140776491    8.50426952009042    2.82548625714922
C        11.39523770686347    8.04545535767321    2.06376351760412
C        12.45920743505028    8.89194421489478    1.81439756423707
C        12.46697341088402   10.16958578799086    2.33792033462985
C        11.41586837096003   10.64628122876025    3.12687696513068
C        12.70408416113109   12.70230983998613    3.55583007382904
C        12.49718985727240   13.94591401748967    4.42712130143039
C        11.71247072915365   13.82913589617903    6.80533505392987
C        12.26389983095967   15.04578001252603    7.20536280678281
C        12.29667607648869   15.39792367359244    8.54132004311407
C        11.76569693830185   14.55120902988036    9.50025708580833
C        11.23833243860228   13.33023220818638    9.12063725299979
C        11.23969767874212   12.93436997902672    7.78774337912934
C        10.62627690645789   10.42981699605451    8.89341258895041
C        11.83547781006316   10.10618895240539    9.50348636489105
C        11.84202846153263    9.40556773099607   10.69433384200448
C        10.64723200978136    9.02343047784924   11.28589109533006
C         9.44211844995734    9.34384221804531   10.68442598461776
C         9.43133042504625   10.04246498557865    9.48965526284472
C        11.93470554296066   10.47876212193946    6.48329911599802
C        13.23055362754592   10.97669909145164    6.40372990526234
C        14.22521524628972   10.21996660361594    5.80876055981265
C        13.94196390670314    8.96276025835854    5.30052926622781
C        12.65920308677683    8.45146587251580    5.39963201735323
C        11.66188043514594    9.20657981019422    5.98703700107523
C         9.44615705565787   13.86048232667696    3.95164732557320
C         9.45749678233472   14.23325703755950    2.59873041494659
C        10.29990298989305   13.60250314862572    1.52701200813690
C         8.64536588493868   15.28099027114496    2.18331678855350
C         7.81202599624979   15.97334229182389    3.04562575587620
C         6.95192238077621   17.09001328646488    2.54065422608722
C         7.79616770952721   15.58576213604458    4.37355646793865
C         8.58648086839481   14.54250001885519    4.82913940076564
C         8.48736359255076   14.18117958536603    6.27806392568284
H         6.72007139821188   12.03036884969155    4.85499984895215
H         5.27715370008098   13.41320969999549    3.40782618298773
H         5.63642727350642   13.42919130552212    0.96459857346479
H         7.41417622496818   12.04071782803917   -0.02815400549040
H         8.86635232787933   10.66993707630194    1.41213805526657
H         7.04437862253891    8.96827992946276    2.41463779735709
H         5.58549689846184    7.00325371039393    2.63098989382411
H         5.54175981564676    5.71189416433959    4.73120754444044
H         6.96321889409892    6.40064629871985    6.62994570921242
H         8.40777166278612    8.38609106608655    6.42835998452840
H         9.50727869495432    7.84284711191863    3.02270305954577
H        11.38339696289202    7.04139234542186    1.66812514168008
H        13.29315246168186    8.56091619477985    1.21339577812264
H        13.31419096895908   10.80215020588564    2.12899233627175
H        13.53776866148310   12.10742309659831    3.94963863402972
H        12.92732588574426   12.98112361178444    2.52220553457018
H        13.44767091868220   14.30225577546577    4.82943904705557
H        12.02698831482214   14.75069687962614    3.84728510262351
H        12.63996477683349   15.72939253203974    6.45835504314650
H        12.72118258343058   16.34788220708147    8.83044596625040
H        11.76601048042845   14.83818081430822   10.54045853021445
H        10.83128231796633   12.66681593569795    9.86974708207184
H        12.76713518260423   10.40737814826509    9.04399626260722
H        12.78193724224956    9.15493444047917   11.16501003950679
H        10.65870463761383    8.47487198203622   12.21638168659652
H         8.50963271247313    9.04963600641020   11.14270203848331
H         8.49215296645963   10.29866480791957    9.01054156066858
H        13.46688636256965   11.94702921534711    6.81826632718955
H        15.23176887867844   10.61119081143769    5.75007456666393
H        14.72316856301074    8.37874529663264    4.83712775660380
H        12.43556800932375    7.46742047827551    5.01575456515018
H        10.65865209400093    8.80768534154514    6.08192106131044
H        11.28902481058127   14.06048974986672    1.50244882673883
H         9.83838484903684   13.77422082373488    0.55659575646559
H        10.41023911839759   12.53408277205608    1.66330999019810
H         8.65986602754785   15.56184449858010    1.13885481273953
H         7.56951265842451   17.89725164781419    2.14785936036006
H         6.31213139246353   16.73802692934461    1.73266414902613
H         6.32518954397812   17.48736032458294    3.33461776508522
H         7.14685188030423   16.09436083344315    5.07205824570444
H         9.23904645626844   14.71273257592875    6.86486269273022
H         8.62175368239125   13.10374049029398    6.43286312135131
H         7.50698829343306   14.44712267378088    6.67016909267549

