65
CSD_code = FUGWOV | q = 0 | S = 0 | Stoichiometry = C16H41ClN2Si4Zn | MND = 4
Zn        3.60988855981231   17.15645052677635   13.42463175560891
Cl        2.23726940902426   17.89775256530726   15.14715785637897
C         5.50557853780288   19.51927061945821   12.19069102158912
H         6.48036828701048   20.02778498104198   12.23587875106437
H         5.54639768820634   18.75428286305770   11.41433049046178
C         4.38875775352783   20.54152444458911   11.95198701028665
H         3.66155466219090   20.16611257975753   11.23560303621907
H         4.79809643598922   21.47351605523520   11.56438996127766
C         3.74783427341577   20.73669953542558   13.33446597484063
H         3.62029390492654   21.78498692106024   13.59591908041660
H         2.77364079491140   20.25111923041504   13.37954809381670
C         4.70099089796577   20.02701611674130   14.28691035678820
H         5.52937933669071   20.69001436310164   14.58087560711998
H         4.18534478034418   19.67235432769122   15.17642651045924
C         6.38202653131498   18.27792431134514   14.07052073537838
H         7.11078295235038   19.03946514915322   14.39379964855980
H         6.85439983257806   17.66158966896978   13.30123832671977
C         6.02155265746870   17.39963987107361   15.26549937677519
H         6.94832271624364   17.07740534285442   15.76823980911472
H         5.43460466372766   17.98604670674171   15.97426225499878
C         4.58041803074209   15.60741061648280   16.01604439709381
H         3.78837716017843   16.24150461105841   16.41095680808765
H         5.31872453158533   15.40682793185221   16.80691715241201
C         4.05627133604400   14.30753735965838   15.42377818450084
H         3.10426958172146   14.49972223574700   14.92717416958488
H         3.90319787121745   13.54365561959290   16.18331391631371
C         5.13314605380514   13.91939400703692   14.39804328242598
H         5.72916726184853   13.07680481876280   14.74631554524703
H         4.68822585398514   13.64831277515732   13.44269683965774
C         6.00332506702703   15.17561188637228   14.26079572696641
H         6.95004946761286   15.04667839879693   14.80742772342392
H         6.23124046556577   15.40075139092412   13.21872730881628
C         6.31474433637331   16.24902648804780    9.92574810095255
H         7.11833155945963   15.79089784370338    9.35658035749507
H         6.75668431168887   16.67520125232839   10.82202785599995
H         5.92195963748482   17.06950458428764    9.33247114095575
C         4.40767458375459   14.15369970613485    8.73604063089197
H         4.06991532702572   14.88249296907614    8.00634325111832
H         3.58731286845317   13.46568778611630    8.91276074573847
H         5.21824658590983   13.59041435709451    8.28281206600760
C         0.96146899328279   18.75660731308569   10.68693953989637
H         0.74605431396536   19.68348782481701   10.16268727565810
H         1.26137907977928   19.01338506919365   11.69945276032535
H         0.03109605388123   18.20093788309800   10.76088622034894
C         1.52014335277895   16.96062369908233    8.25442233783604
H         0.75485447227529   16.23342031464907    8.50705178491261
H         2.26528665630373   16.45265212772800    7.65132460914830
H         1.05865253676061   17.71990021112561    7.62943647795884
C         2.01665198886363   12.79075073430202   12.17373041597974
H         2.38538188501426   12.82103736216567   13.19435277411366
H         2.83413572202152   12.46558336057127   11.53715901316141
H         1.24660477704088   12.02589938095638   12.13201746378233
C         0.09660699175103   15.10511042841147   12.90481677866183
H        -0.57235253627151   14.31971230525471   13.24601824878546
H        -0.51688073246691   15.90175558454403   12.49522210501424
H         0.59908232028151   15.51095352775623   13.77932499723361
N         5.20486161430164   18.90658133186214   13.48928562604753
N         5.21997207309986   16.25347588881479   14.86891054211092
Si        3.08293041169050   16.07282523087055   11.33514569440593
Si        4.93538809911434   15.00131974081874   10.35366696095000
H         5.61528138416668   13.95005121436517   11.14946520376168
Si        2.29757844763684   17.70986622664772    9.82216248512614
H         3.33817339781644   18.65288099629806    9.33623270737332
Si        1.34670383837045   14.48694362280951   11.61149920985854
H         0.59057829154475   14.21934580274904   10.36773790600971

