40
CSD_code = FUHKUQ | q = 0 | S = 0 | Stoichiometry = C18H12Cl2MnN5O2 | MND = 5
C         2.25559491750834    8.67018261762719   13.19515610821302
C         1.61913835426936    8.10826404535664   12.05143607249241
C         0.24567496002437    8.29486161319478   11.86254031595323
H        -0.23682969961424    7.86628868290652   10.99743741843234
C        -0.48312007904046    9.03190411501080   12.77089246754113
C         0.12750772534251    9.58339522948300   13.89643106086241
H        -0.45991210141180   10.15675239326011   14.59625401696450
C         1.47337087207545    9.39259256593238   14.11113838767791
H         1.96011919960906    9.81588303275283   14.97655953106687
C         2.38439674561051    7.28358462792155   11.16776988987428
H         1.82376652941875    6.70489276754114   10.43138190992276
C         4.25064211730570    6.10264418865116   10.40300307341106
H         3.95807823909478    6.25626078812944    9.35903601779185
H         3.86789276226133    5.12780382028191   10.73038571022120
C         5.77511769191835    6.13480280880976   10.54884190801253
H         6.20169678892281    5.13154016800831   10.43209446612912
H         6.20434418240035    6.79316136391665    9.78329845353807
C         7.19677833489302    6.28689203622604   12.42880301158797
H         7.73626019580141    5.44794312890607   11.98778625559579
C         7.75438690202264    6.86047447021576   13.59641844831673
C         8.89727680403674    6.28533981017574   14.18712040776435
H         9.32188001424894    5.39328910639390   13.75162594803467
C         9.45639213585423    6.84034571911667   15.30683663012119
C         8.91841858956875    8.00332761504217   15.87845640621816
H         9.37852006705396    8.42280661963463   16.75947114255862
C         7.82663548634909    8.59873247058754   15.31212316765122
H         7.40260185432369    9.49691891286692   15.73423300973793
C         7.19545340932361    8.05736593112728   14.16150211437248
Cl       -2.17511751750170    9.26975056202228   12.52084868593173
Cl       10.84464490147110    6.11141580347220   16.03423026859826
Mn        4.94961981081729    8.05271673584150   12.47371476943685
N         3.66770104840946    7.13543029914368   11.25318269254106
N         6.10601671842094    6.71053147995835   11.84428949578227
O         3.52888782538976    8.48770594892806   13.39595273434768
O         6.18960936063368    8.65882068246963   13.64142872361774
C         6.85106626133578   11.58858317210789    8.89038671594802
C         5.99711833005307   10.18187848336663   10.58765040260762
N         6.50733896372159   11.16867777713055   10.05666529869664
N         7.19423828688596   12.04958093572746    7.89218049909607
N         5.49789301119076    9.28695747075068   11.17823636333000

