63
CSD_code = FUHLEZ | q = 0 | S = 0 | Stoichiometry = C26H33Cl2PRu | MND = 9
Ru        3.54937171818234    1.80130360676766    1.40497890259343
Cl        2.55567388435712   -0.28637997068327    1.86593843303567
Cl        5.43968931868639    1.11380777852125    2.63975669661768
C         3.42478471746298    1.33211439354622   -0.83252796716375
H         3.32415324120357    0.38469745492800   -1.35245612240255
C         4.68808484430766    1.86461008953138   -0.58633334392617
H         5.57388291007888    1.33263625635079   -0.91810975304441
C         4.83918221759894    3.13166262688485    0.05099246816880
C         3.67939629464776    3.84129382289723    0.40190558504636
H         3.76160017068012    4.84434047836205    0.80274841360394
C         2.39021987452506    3.29054293015142    0.16691288315572
H         1.50760242439162    3.88002207562928    0.39644371975417
C         2.24551399839293    2.03429063719203   -0.44673679036258
C         6.21579662611372    3.73702983863896    0.18683363639594
H         6.95082003074544    2.93172925742197    0.07754541054586
C         6.44315182618957    4.38890269730376    1.54970013116409
H         7.47900050828433    4.70735871393359    1.63623934272398
H         6.23611288721262    3.67036454626699    2.34039175582700
H         5.80731484939808    5.25997226665439    1.69163965377962
C         6.42337306873387    4.74433384854403   -0.95018771887519
H         6.28599667228267    4.26810892217925   -1.91952235577338
H         7.43029730283266    5.15164869607184   -0.90534981747352
H         5.71456995871258    5.56620261842216   -0.86610049992526
C         0.90135323116762    1.45308690751142   -0.76476918676129
H         0.79964567002175    0.47872103957138   -0.28349757541334
H         0.79911647565738    1.30897113164499   -1.84094341757908
H         0.10123768959770    2.10276497006740   -0.41630621860343
P         2.85454625909384    2.40608186789670    3.49500411788781
C         2.96723269562261    1.16298607432305    4.83999264300577
H         2.34832173983845    0.31933855063489    4.51422307099724
H         4.00530366145154    0.82022524820832    4.85726467272621
C         2.50983223618844    1.68025327083140    6.20174280593001
H         1.43546728383537    1.87656687977080    6.16749760677866
H         3.01421852915915    2.62158976403155    6.43535694268963
C         2.79842496257557    0.67089165897431    7.31499816549396
H         2.26926365821852    0.98811042128824    8.21681137205293
H         2.40530967630763   -0.30528555255276    7.02517302974630
C         4.28421534964495    0.54903621919769    7.63315308292731
H         4.43463464638147   -0.12660435257333    8.47180652510919
H         4.69709694489466    1.52050076946055    7.89795111760075
H         4.83796945440133    0.15783334356154    6.78415037930911
C         3.77434595173128    3.85723586055801    4.07713034755255
C         3.39245284981088    5.12673777330105    3.64916333919347
H         2.50671696753626    5.23720304851676    3.03672816563927
C         4.13208162775245    6.23710741403860    4.01088878103450
H         3.82525698800696    7.22015627932514    3.68229047231425
C         5.26840931227382    6.08889054740788    4.79049379926177
H         5.84617862046998    6.95689080075128    5.07177962415187
C         5.66701330701233    4.82643252090590    5.19745584294186
H         6.56122216619158    4.70894334392878    5.79136158089022
C         4.92916188938665    3.71175827543298    4.84010258812819
H         5.25828505762000    2.72589474071039    5.13044906146487
C         1.10294680711733    2.89274508823566    3.59454498329725
C         0.62303560297339    3.87012111099586    4.46012280261531
H         1.30589650949020    4.41249897969554    5.09828218818479
C        -0.73230350725808    4.14569601949474    4.50436649462300
H        -1.10171366081129    4.90699818486911    5.17615445643657
C        -1.61510701427932    3.44709484149174    3.69660285338492
H        -2.67141760811726    3.66958506287249    3.73460749547077
C        -1.14289398586284    2.45790388139981    2.84901576015682
H        -1.83149306216360    1.90112929777603    2.23031808422125
C         0.21103369160067    2.18025862965203    2.79902337112249
H         0.59581198040303    1.39515650132913    2.16050611056200

