36
CSD_code = FUHPAZ | q = 0 | S = 0 | Stoichiometry = C13H16HgN6 | MND = 4
Hg        8.98327850726987    2.05966725372022    4.06177668268736
N         8.59849809405794   -1.35769621597415    4.74595150775643
N         7.93468248407382   -0.19298443674750    4.84391841314628
C         6.79887401447523   -0.44872039173760    5.47220917753862
C         6.73489410775109   -1.81390438920036    5.79475591124519
C         7.90095950882994   -2.36896463233504    5.31682323630060
C         5.79924154904646    0.60685961483458    5.76904054929590
C         8.39653018058405   -3.76604928883536    5.40526184273303
C         9.87027975374142   -1.39914805550179    4.07077655837776
N         9.74016499303117   -1.02952621055663    2.68906505170761
N         9.69276974570061    0.26987945234656    2.34617232046141
C         9.53694542047142    0.31705010306988    1.03328400589222
C         9.48310697216786   -0.98759033157586    0.51659398013081
C         9.60768298687910   -1.82655065731640    1.60060022592792
C         9.43290213741722    1.59937447700107    0.29430186904970
C         9.60953248797198   -3.30950169872378    1.66267083137753
C        10.69926224756067    1.80797358282025    5.34268698567867
N        11.59581006163935    1.54016452787025    6.01006873747102
C         7.35616867735685    2.95865880557241    2.98399339358845
N         6.48389760742279    3.41629828025166    2.39394449881478
H         5.94304218043878   -2.31710569785144    6.31010112564764
H         5.87813000945819    1.41712334163840    5.04514004094463
H         5.97231803371901    1.01666717002069    6.76454476245784
H         4.79406084642705    0.19253644826932    5.73828728953868
H         9.33805940612028   -3.80828376312599    5.95272859797007
H         8.55109898720724   -4.20078851604130    4.41826172379351
H         7.66440987056751   -4.36960684249503    5.93400118570020
H         9.36851038156162   -1.26991190042725   -0.50955281420824
H         9.84571972300986    1.49458807805473   -0.70593080001472
H         9.96662293389866    2.38466435134990    0.82702609338097
H         8.38743563045664    1.89684308491956    0.20887429969406
H         9.63182470136632   -3.70984853915695    0.65311207946266
H         8.70798582460053   -3.67535784004962    2.15491107389336
H        10.47962977342926   -3.68263490509917    2.20234402367095
H        10.54907097072872   -0.67822270904725    4.54813994373150
H        10.28049918962806   -2.40745154994874    4.14791559518956

