99
CSD_code = FUHQAC | q = 0 | S = 0 | Stoichiometry = C54H40N4Ni | MND = 4
Ni        4.12714061294921    3.67895336237077    3.51300288730398
N         3.54847102870453    5.52590102180493    3.05697184921329
N         3.28019209505952    2.97792066003878    1.87932765784393
N         4.66969610550277    1.87018146941827    4.06416356718656
N         6.38132567830484    4.59083083629332    6.91559135083270
C         3.73817198995559    6.70118432760153    3.75750192571638
C         2.97919738537326    7.76626020997580    3.16474351096658
H         2.92226475022619    8.76498818015398    3.55174734073691
C         2.36534204599436    7.24733924894468    2.08254496858897
H         1.70078323971275    7.73381381694948    1.39550236399317
C         2.75044880024466    5.86246882353166    2.01016182138891
C         2.35199273086799    5.04201616927133    0.95069524408982
C         2.65968877794353    3.69290948055821    0.89863548331867
C         2.33931486393773    2.84462832212610   -0.22305613112117
H         1.88278855035817    3.18036355580261   -1.13379375589964
C         2.74333984439810    1.60268569421855    0.10653744271133
H         2.68850516488007    0.70423043568168   -0.47686937449167
C         3.30774138435079    1.69115688272808    1.43093279601177
C         3.78221927077703    0.59900512018465    2.13729558258515
C         4.37451184464318    0.71943319551968    3.39763652375219
C         4.78674937417372   -0.42830839875571    4.15522242425779
H         4.63262775194307   -1.44684100938246    3.85746777728407
C         5.37213042609892    0.03707471963959    5.27902309692287
H         5.80504205741861   -0.52315412640317    6.08504546290526
C         5.31375592999717    1.46796947172152    5.21213818863141
C         5.89503230726427    2.28532447261206    6.16726027641373
C         5.78678252683554    3.67307567515413    6.04023962718529
C         5.02608568699764    4.35743355099935    5.06084483493331
C         5.16907670874926    5.72837958895431    5.43370066304200
C         6.02369681243992    5.80941523848906    6.53723918598756
H         6.38026707072248    6.69371254474510    7.02820680851140
C         4.53974822097307    6.85634456227456    4.86485952056178
C         1.58823136931746    5.63823393572665   -0.16391662258252
C         2.15633050209872    6.62835781595171   -0.96020171260574
H         3.16502520454064    6.95754795950792   -0.75515298811214
C         1.44404819214214    7.17640284390740   -2.01109058594361
H         1.89695097593091    7.94080930743746   -2.62601621237965
C         0.15440774616993    6.74700821717071   -2.27714495377885
H        -0.40173405348866    7.17705834983108   -3.09723007281102
C        -0.41911046781413    5.76385257232638   -1.48827320931444
H        -1.42564643994800    5.42706519817697   -1.69068226439247
C         0.29330329906088    5.21013308681694   -0.44016516718560
H        -0.15452766120961    4.44645014094068    0.17955593781376
C         3.65810654877588   -0.74431666604210    1.53607469574149
C         2.40400576448741   -1.28567902485873    1.27062924542789
H         1.51930943739397   -0.71834256882209    1.52209672247170
C         2.28885034074655   -2.54166794002590    0.70322634053944
H         1.30985032122378   -2.95408660050773    0.50575597111834
C         3.42392520142688   -3.26994037278520    0.38860500223174
H         3.33314814343042   -4.24993605618062   -0.05653847561574
C         4.67602752612113   -2.73703068748785    0.64668330635630
H         5.56449892884204   -3.30044462628514    0.40022205806776
C         4.79373444500444   -1.48375144613459    1.21902033492994
H         5.76973197132263   -1.06383934254603    1.41617465709366
C         6.59561536873611    1.60621112312260    7.28124234088544
C         5.90444105066048    1.26904392006315    8.44088383683669
H         4.85820140205571    1.52643829026845    8.52551426880971
C         6.54900052667683    0.60501210358068    9.46939966284007
H         6.00451409531495    0.34514001276862   10.36546931639845
C         7.88678693047294    0.26721873681803    9.34834532803682
H         8.38815006618533   -0.25284790068171   10.15093160793487
C         8.57648136088867    0.58777710397093    8.19112552131036
H         9.61640079185618    0.31410292230630    8.08844911370475
C         7.93448524719667    1.25101928430139    7.16037523312031
H         8.46478042025133    1.49116919157216    6.24987953367392
C         4.73911727023533    8.17284004201047    5.48744880343484
C         4.44733440448379    8.36747723706593    6.83650003609426
H         4.02537040229200    7.55390000717666    7.40855994430602
C         4.66961161963452    9.59356072240886    7.43464437210458
H         4.43468529513052    9.72997565339723    8.48064606157121
C         5.18879733501147   10.64450227359404    6.69660262595278
H         5.36372523288306   11.60279690692921    7.16362715175630
C         5.47847938349642   10.46268701040413    5.35439805674025
H         5.88345256757906   11.27944332305106    4.77471267297890
C         5.25472626271048    9.23804993302667    4.75273057854205
H         5.49580985600802    9.09181631208558    3.70999418445029
C         7.25378369858743    4.32347197562445    8.04480612427080
H         8.17887383218009    3.86129800375731    7.68370466881899
H         6.75884200789318    3.61624025024236    8.71651261041109
C         7.55547099198238    5.59960339331876    8.78243965678521
C         8.69381036251573    6.34069349103072    8.49439622575387
H         9.40975806314404    5.96285115422195    7.77854804812683
C         8.90692744192940    7.56480690440396    9.09942601611895
H         9.79414735958622    8.12638429651737    8.84923206063852
C         7.98918476334348    8.08322442672376   10.00545887551251
C         6.86614330802454    7.32451024152724   10.31070030288968
H         6.14495513270536    7.70250834890184   11.02122410024640
C         6.64979762030483    6.09885737194095    9.70966579469574
H         5.76186370027454    5.53065428692720    9.94750762699703
C         8.18532149469311    9.44370155328893   10.62496818763317
H         7.35598340561691    9.62542424700042   11.31764110492083
C         9.49106183530781    9.50981786026908   11.41897632245617
H         9.51147764200255    8.73321660019597   12.18056186671345
H         9.58341916719735   10.47690539914953   11.90800615987431
H        10.34990858504525    9.37361599555958   10.76675803874991
C         8.14854022300148   10.52561618549298    9.54236535552230
H         8.20019646578596   11.51301537848661    9.99554485426483
H         7.22904857659386   10.45341456657738    8.96524570179722
H         8.98771909914736   10.41715266026248    8.85977711687391

