87
CSD_code = FUHRAD | q = 0 | S = 0 | Stoichiometry = C44H34N8Zn | MND = 4
Zn       13.76418515138049    9.03880909661194   15.24560161002847
N        14.53799381772241    9.93582940222536   17.00839705134219
N        14.46033062928484   10.82527708420595   19.03263541539371
N        11.84984470607067    8.84552145618153   15.28201603180273
N         9.68333998480962    9.16405069223734   15.85372766752700
N        14.56642618879339    9.90332146765671   13.72453334535879
N        15.72310175382941   10.19559931358392   11.80129336437730
N        14.63260911612488    7.14919682661730   15.67447127090533
N        16.03415184317698    5.45700055214467   15.41614714487735
C        15.62887512885034   10.77132164345821   17.15535760153804
C        16.66877588129589   11.09177952623685   16.29008080680531
H        16.72623473678601   10.67617322704247   15.29964464634207
C        17.61790907871986   11.98852960361285   16.73403196856537
H        18.42851981539865   12.26130756985765   16.07635468015692
C        17.55667073837519   12.56039127644124   18.00558977775115
H        18.32104651021614   13.26038966745476   18.30599294321409
C        16.53831778894621   12.25045770571002   18.88398940261051
H        16.48307418426981   12.68837756970397   19.86857213979470
C        15.58272394388307   11.35128893775306   18.44020938746193
C        13.87503046926283    9.99103848467214   18.14059976108983
C        12.63560330723665    9.25023137050176   18.48255393968314
H        12.32608171688133    8.67065505228151   17.61612296058395
H        12.85307403627806    8.55910786140312   19.30239509267515
C        11.53237057153940   10.19613581145525   18.89970186297633
C        11.16829530889851   10.27385547851556   20.23719502112599
H        11.67274931486804    9.64971816664761   20.96351019349803
C        10.15767866455007   11.12234759193046   20.65225036137427
H         9.88318750157308   11.16613192755000   21.69565407873428
C         9.49961028925389   11.90300574440037   19.71907953869195
H         8.70307281036071   12.56268919598265   20.02876995341635
C         9.86204549053980   11.83472437715290   18.38621987322085
H         9.34206197205229   12.44065818211884   17.65974175984481
C        10.88092762638747   10.99397684893396   17.95633840961820
C        11.24766974923070   10.94968982717358   16.49937604999991
H        10.69290383443045   11.72647287383113   15.96879551815622
H        12.31466733480396   11.13556045947771   16.35862709721387
C        10.90652416712438    9.63161312540570   15.87763375755543
C        11.12977997354377    7.77686178281944   14.80057446132060
C        11.50842112116789    6.64970519543774   14.08571957073749
H        12.53348420024250    6.49479796211464   13.77805767005669
C        10.52922426934283    5.73035821791002   13.77221157185112
H        10.79545282357649    4.84182717642968   13.21673996149934
C         9.19931601275372    5.92085029107546   14.15248408340357
H         8.46742727000892    5.17210736711030   13.88389000693717
C         8.80312348516999    7.04104209921880   14.85133841438550
H         7.77515198772396    7.19738134856005   15.13915676757005
C         9.77576007871741    7.97842921646842   15.17671349039379
C        14.83425333447851   11.24671713253143   13.59869919619419
C        14.52327099699651   12.33381086757900   14.40268101762735
H        13.94565255299469   12.21772256376025   15.30950415486891
C        14.97112944453370   13.57563451761356   14.00313972035902
H        14.74467960924272   14.44088819301716   14.61056382774252
C        15.70851926171191   13.74373855878354   12.82943456202968
H        16.03818207893122   14.73674840953069   12.55799788598909
C        16.01479422754273   12.67697787295841   12.01186952617628
H        16.57610682495190   12.80308022133744   11.09915673051914
C        15.57224255455634   11.41777573615369   12.39802973383453
C        15.11438132066707    9.35571501982911   12.60094107067574
C        15.00852112065308    7.89418846108953   12.29608601596319
H        14.46162668384139    7.78413116783116   11.35721321285336
H        14.42837775696558    7.41433057376987   13.08727721463783
C        16.36015516071938    7.25225871021071   12.15425706088839
C        16.77115459695039    6.77510251897482   10.91605616148871
H        16.11048210403293    6.88074841792834   10.06890073467547
C        18.00709837474665    6.17744256143118   10.74931724115104
H        18.30509085170403    5.81599526706399    9.77662956497045
C        18.86030179766498    6.04741011965935   11.83024731757862
H        19.82836930675120    5.58383187408106   11.71239333941611
C        18.46770884373804    6.52574696948645   13.06743703441988
H        19.14082913966651    6.43998365680819   13.91070147352833
C        17.23073536886406    7.13204579872769   13.23986340673187
C        16.83942311303526    7.64943546986709   14.60552723974905
H        17.72138078600462    7.67569256816022   15.25246028712541
H        16.44059538727261    8.65787108468266   14.52553892532095
C        15.81267674908923    6.78033250710783   15.23193914281128
C        14.03771131846448    6.01303819858654   16.18923227258353
C        12.80162773144577    5.81136759840519   16.79275298742912
H        12.10107788395835    6.61670253964037   16.92559321204100
C        12.48645716284350    4.53011673857972   17.19420431364715
H        11.52827375777228    4.34667077683820   17.65493216846458
C        13.36636146160763    3.46188293501369   17.01456736698306
H        13.07260808063660    2.47640857435747   17.34175153972834
C        14.60165278315274    3.64042700129134   16.42563088089302
H        15.28772495817395    2.82007635801775   16.28228257383755
C        14.92021538743129    4.92592960105978   16.01992949583313
H        14.09755496286720   11.04643804406206   19.94573080469270
H        16.85486877789425    4.95758915883814   15.11403210111477

