53
CSD_code = FUHTAF | q = 0 | S = 0 | Stoichiometry = C24H22Cl2N2O2Pd | MND = 4
Pd        7.00604023060271    6.16550915470881   15.53710635421091
Cl        6.28104023174018    7.34042924557259   13.70033622113493
Cl        7.77761825161860    5.19497735870397   17.46628981485180
O         2.37550498448638    6.77134928346505   17.01044655572775
O        10.46533296438495    4.28842755247978   12.86724721242570
N         5.15765873925675    6.07725566081081   16.13120509535280
N         8.86635519669003    6.58319602899250   15.10121767436711
C         5.64561276781773    3.27954785344462   15.44540811828699
H         5.85801492195430    3.47939084882095   16.48871511238456
C         6.16455061725944    2.14428718760287   14.84399672147737
H         6.80923560552141    1.48837484029129   15.40915751416762
C         5.84183041744796    1.84230905515872   13.53123232936051
H         6.22802159822536    0.94269711706733   13.07442653435152
C         5.01786279197999    2.68990205508236   12.80996177769040
H         4.76829377035447    2.46124545958313   11.78421213108758
C         4.50302643452185    3.83103594954922   13.40194108580696
H         3.86033191388880    4.48961174949160   12.83644525693408
C         4.80251674508060    4.12923376566981   14.72599622437048
C         4.16486107304209    5.30844016052228   15.41832199834100
H         3.68288206306742    5.96135165510974   14.67857520247547
H         3.39250799110018    4.94715156228643   16.11052048472070
C         4.83120681993120    6.90721085579527   17.05581704049992
H         5.64371219424421    7.43252049783530   17.56484302813266
C         3.52914568763645    7.24851267270021   17.54627976500446
C         3.22419376183018    8.10332482872454   18.58903887826779
H         3.92637063902993    8.62919498443545   19.20253248613684
C         1.82205800003322    8.13530624263452   18.68247072196063
H         1.23187150309938    8.69323818972148   19.37946583139476
C         1.36288214122439    7.30878173493991   17.69721212378553
H         0.36993178340926    7.03418441591432   17.39965705665181
C         9.66431563605428    9.24329480846305   13.91375530682604
H         8.66950848351894    8.98377323962090   13.57879152372954
C        10.44929174848049   10.10825441453003   13.17429151140665
H        10.06549607281588   10.52915865938759   12.25709559419302
C        11.72270256808888   10.43721316151824   13.61071242332939
H        12.33440384755925   11.11487349185271   13.03374239987205
C        12.21012529460588    9.89712774592569   14.78802281205276
H        13.20204526499502   10.15137623753826   15.13152424771879
C        11.42859041974815    9.02548556225486   15.52787441326316
H        11.81201683280990    8.60278788054185   16.44599624849324
C        10.15190303803037    8.69573918958521   15.09596592642997
C         9.27538494761935    7.75021996601687   15.87840933883855
H         9.79042565895302    7.39587690081178   16.78182085560104
H         8.35484266698697    8.28116236734446   16.19361925603820
C         9.73750129146385    6.00402657527066   14.36607408255916
H        10.76721056652678    6.36513797410975   14.33221984356754
C         9.44478631451296    4.88386095901765   13.53314900821048
C         8.25208779816774    4.27058543962107   13.20557613607238
H         7.26810413118759    4.55276442573921   13.55725099047030
C         8.57959429562933    3.25280032101593   12.29059436514677
H         7.90314179127074    2.57572220881194   11.81306509808871
C         9.93488931836863    3.30990249886983   12.12867059481478
H        10.60826017212349    2.72555800504891   11.53240167191746

