36
CSD_code = FUHVIN | q = 0 | S = 0 | Stoichiometry = C14H9F8FeO3P | MND = 6
Fe        9.42096842445071    6.34608989785228    2.23507942420105
P         8.74937332244571    2.08712563361821    3.08109209843449
C         9.33696002611148    3.74925493588317    2.44615213116289
F        10.30205979283635    3.27946586796021    1.56549539698193
C         8.37811080712432    4.68211033643560    1.68570133695798
F         8.28470107721616    4.22752576074260    0.36921197954500
C         7.00507819917317    4.69473986479507    2.27440538110395
F         6.13719743624037    3.72535435184063    1.87730508659353
C         6.72732869245881    5.62501616196970    3.18185385364555
F         5.55563595051694    5.71961006355050    3.82432067834716
C         7.91632084357272    6.44582440389663    3.64075705186542
F         7.50573139050183    7.73629615683038    3.95956186774359
C         8.33774168640075    5.71307534881087    4.89907625916880
F         7.61605089197341    5.83233784576219    6.02142398559394
C         9.30728455799149    4.82008122250196    4.72978173290681
F         9.69452951956995    3.91902198674393    5.67245968272521
C         9.98455402192407    4.76931213691893    3.39911381374086
F        11.31336674090615    4.39175097426160    3.59933752156177
C        10.33320222567858    7.55080502560616    3.17000689143365
O        10.90115654067671    8.29083432967590    3.81694018177134
C         8.48910580397131    7.44952036176919    1.19986187818572
O         7.84485118081305    8.12498081641862    0.55381789524061
C        10.70790960033185    6.05227600554383    1.04574752980333
O        11.52763166436691    5.85740693063836    0.28486056163666
C        10.20459211515683    1.27419817075403    3.78192816853926
C         8.19789359658066    1.16346937480215    1.62779942482857
C         7.42245989786849    2.06294992415048    4.31952988273426
H         9.96398561106800    0.23704957490551    4.01167256527789
H        10.50989859153654    1.79113633228283    4.69098301234959
H        11.01971645560900    1.31761857185372    3.05996860121307
H         7.97268536918963    0.13725893559308    1.91494847444472
H         8.98716122874048    1.17719356728704    0.87652950429402
H         7.30682576881146    1.63305773635156    1.21252790442009
H         6.50930645463889    2.49954498696126    3.92141758691413
H         7.71976325316339    2.59425697362723    5.22080178062300
H         7.23246126038420    1.01984943140489    4.57302887401031

