63
CSD_code = FUHWEM | q = 0 | S = 0 | Stoichiometry = C18H28N14NiS2 | MND = 6
Ni        4.53129590118178    6.33853086437303    4.93275743445703
S         6.25143923819347    3.80254314791026    2.96930750268805
N         2.14786440297178    8.06277598530678   -2.22738416498069
N         5.31740099952073    4.39018448253758    0.11403043568197
N         4.89105702742788    5.21571354479789    1.14601667068789
N         4.60083333888486    5.97511168505238    3.16877298294261
N         3.89080319597930    6.74082095641326    2.34002854001626
N         2.35955315535282    6.37065902500290    4.76845446194955
N         4.06125702251397    4.26257048205838    5.41209461130425
C         2.77359253387162    6.90391084441333   -2.34465418257545
C         3.41732916093572    6.26400894761682   -1.29908627494549
C         3.40809350799972    6.87554127286313   -0.04407176429394
C         2.73679101439519    8.09602747417442    0.08320688481320
C         2.13084685213206    8.63709463270367   -1.03437759412049
C         4.04240479420823    6.29386181499326    1.11608152957286
C         5.23526867037028    5.03090894354915    2.46762592763557
C         1.84044949003496    5.00797925173924    4.71805939363447
C         2.63651155873636    4.12593081966783    5.69440033894180
H         4.61955884640014    3.97691973080514    6.21266251104737
H         2.10654266396630    6.88593005835318    3.92861746119883
H         0.77261064353495    4.95236593360983    4.96728257447301
H         3.89871242350295    5.31092779014582   -1.44557978266611
H         4.34182048015696    3.67857722825353    4.62331924164099
H         2.70222801899204    8.59089338389544    1.04019763863309
H         2.75695423938237    6.46407475429640   -3.33343480318041
H         1.98146789286594    6.88493295022544    5.56501455704497
H         2.45145558355650    4.47611864134925    6.71381894790862
H         1.98022750072684    4.62229620081958    3.70434760638161
H         6.09224779542393    4.82549145108912   -0.39033127491027
H         5.68415605800798    3.54693660293035    0.57106901320288
H         2.28614615356797    3.08846921775209    5.61371039474294
H         1.60407197430320    9.58088121767139   -0.97931081497504
S         2.81117088500079    8.87452157168078    6.89621277891688
N         6.91468070588792    4.61423211871450   12.09289875625282
N         3.74518776501542    8.28685375748491    9.75149308318139
N         4.17152828099359    7.46132693303189    8.71950351907937
N         4.46175514128547    6.70194006272525    6.69674324946334
N         5.17176331463239    5.93621295035893    7.52548830061656
N         6.70303405041124    6.30640042527505    5.09706508331669
N         5.00133790147001    8.41449012923147    4.45341885469510
C         6.28912830614526    5.77318020490655   12.21013032020754
C         5.64530509964835    6.41304383022192   11.16458846380132
C         5.65448407983003    5.80148988856962    9.90958564443372
C         6.32569000034619    4.58095962243074    9.78232597920966
C         6.93151839492328    4.03982898703008   10.89993681541772
C         5.02017524782622    6.38317472317467    8.74943519820461
C         3.82731904761285    7.64613881604479    7.39789420937380
C         7.22214234242690    7.66907668219080    5.14744283204265
C         6.42608090926123    8.55112257529858    4.17110160010065
H         4.44303023595839    8.70014381210976    3.65285648015495
H         6.95605124186455    5.79113800245054    5.93690555904090
H         8.28997509623301    7.72467883856326    4.89819449677129
H         5.16380774307940    7.36607523326591   11.31111404106321
H         4.72080269334846    8.99848990777968    5.24219760661922
H         6.36038794572826    4.08616863212691    8.82529809571594
H         6.30545178252526    6.21284809825293   13.19899892550110
H         7.08112551927184    5.79213386386985    4.30050429803119
H         6.61113152822454    8.20093029347686    3.15168305480388
H         7.08238446167813    8.05476255938676    6.16115784120323
H         2.97033362742912    7.85155407209957   10.25585066873601
H         3.37844327957119    9.13010739333644    9.29445614046213
H         6.77645487259948    9.58858133573596    4.25178903977955
H         7.45862636067646    3.09620534280834   10.84478305985248

