69
CSD_code = FUHWAI | q = 0 | S = 0 | Stoichiometry = C20H32N14NiS2 | MND = 6
Ni       -0.00000067801737   10.48610344590064    0.00001169906751
S        -1.69731370981737    7.27990464708163   -0.64499763634839
N         2.53576315363667    6.12222823438772    5.88034128245473
N        -0.72591843009781    5.52297417161971    1.64328089235389
H        -0.02586381133866    4.87205155930766    1.28230702920749
H        -1.54017500597072    5.47858948026205    1.01911302847059
N         2.31127336402126   10.48649471715723    0.18039976083908
H         2.54690013281774   11.47245022329056    0.05227650725534
H         2.48239720892926   10.26990915770051    1.16023765006055
N         0.24061895094772    9.48181289617977   -1.92853192208821
H        -0.52510775180286    8.79828064636786   -1.89354526929317
H        -0.01167222002629   10.19156036753108   -2.61613785834622
N        -0.03233821298770    8.87858003783154    0.84587288478035
N         0.70450198828008    8.74094073431958    1.95069708822859
N        -0.25988941690689    6.82780676896817    1.55784453895051
C         1.22873689940282    7.01285461512001    3.58654325187296
C        -0.63502659507283    7.71656907108448    0.57488503601059
C         0.57511439026220    7.51583672770637    2.39994780473367
C         2.21594544068849    7.78754144593300    4.20396812391893
H         2.48062381664019    8.74657671273454    3.78958265847837
C         2.83016868066038    7.29414128930723    5.33906531596462
H         3.60096717775789    7.86031532351844    5.84530218325027
C         1.59493522986330    5.39505815965260    5.30240981193021
H         1.37877406112490    4.44850657062574    5.78043439009396
C         0.90963879240188    5.78228892943707    4.16309303296893
H         0.13889018308757    5.15790154709373    3.74177537871071
C         3.17285072572638    9.65643357749580   -0.65804981873688
H         4.21855431769352    9.99874145777001   -0.61449955760681
H         3.14241902121464    8.63231100548633   -0.27442860132442
C         1.46398146975060    8.80062595772742   -2.34712281857115
H         1.55325289619980    7.87301993351143   -1.77504806111340
H         1.40601058126966    8.53015414508211   -3.41223381187324
C         2.71317788699810    9.65367670550691   -2.11723946678528
H         3.52250925737460    9.26184175686678   -2.73560228120844
H         2.51038275057364   10.67921971399158   -2.43126154253549
S         1.69720447420590   13.69237497930237    0.64506701166509
N        -2.53576097473100   14.84998296445553   -5.88032907210015
N         0.72594490338518   15.44922688844827   -1.64318234782399
H         0.02586605065140   16.10008649538936   -1.28280650656749
H         1.53953896173684   15.49367771216773   -1.01845627046458
N        -2.31126042855199   10.48577070678052   -0.18041529881343
H        -2.54687599297068    9.49980476513254   -0.05233217519236
H        -2.48237334976964   10.70238326153849   -1.16024896768769
N        -0.24062439985056   11.49036838747761    1.92856304238125
H         0.52509172081764   12.17391377988470    1.89357612283307
H         0.01167161248285   10.78063154489431    2.61617708046243
N         0.03236095235804   12.09361189233679   -0.84588475427965
N        -0.70443873926979   12.23123181624414   -1.95073494404083
N         0.25987840569135   14.14440001838852   -1.55783319735524
C        -1.22865900641684   13.95931831780155   -3.58658699313776
C         0.63505371670417   13.25562159304014   -0.57491005993599
C        -0.57505328342395   13.45634324459281   -2.39997906280375
C        -2.21586369225107   13.18463589052244   -4.20399816227706
H        -2.48049892313769   12.22558370073621   -3.78963299197143
C        -2.83013254189047   13.67805676845832   -5.33905996321861
H        -3.60093786668183   13.11188045734201   -5.84528535419919
C        -1.59490286136446   15.57713424176795   -5.30244254408386
H        -1.37877478331389   16.52370766587808   -5.78045790322887
C        -0.90955282865324   15.18987736387790   -4.16316491377309
H        -0.13872690725829   15.81423884769408   -3.74192948475070
C        -3.17285676362953   11.31579331290643    0.65805062867436
H        -4.21855494312340   10.97346915694205    0.61448691390672
H        -3.14244140787387   12.33992816663239    0.27446122607936
C        -1.46399143426503   12.17155208182232    2.34715050196118
H        -1.55325137474826   13.09916711056480    1.77508960974589
H        -1.40603578409332   12.44200711638882    3.41226630617146
C        -2.71319181771802   11.31851465094162    2.11724252994195
H        -3.52252710110327   11.71034031435696    2.73560739052724
H        -2.51040613722987   10.29296305173973    2.43124189959032

