47
CSD_code = FUHXIR | q = 0 | S = 0 | Stoichiometry = C12H24N2O4PtS4 | MND = 4
Pt        0.00035889812162   -0.00040042760826   -0.00081998875736
S        -1.83224483441795   -1.12736166330875    0.94631106587785
S         0.81161521255507   -0.87427368536592    2.02705262123153
N        -1.13887738510810   -2.21978545499556    3.28457497561885
O        -1.97548268845505   -5.07248481086881    3.43424681719616
C        -0.76188206107553   -1.50870619908195    2.22723255444128
C        -2.47093391974597   -2.76467803895336    3.35998805263306
H        -3.17753706419933   -2.06382728522551    2.90986633422270
H        -2.73304863091612   -2.93039201534268    4.40518015668456
O        -3.92034945752593   -4.46473435262550    2.39519531118351
C        -0.21503527355703   -2.60805696425521    4.32401106670542
H         0.79893103194011   -2.34969737478903    4.02598041972078
H        -0.29417141906556   -3.68356663515386    4.48175577116868
H        -0.45938774668501   -2.08693619098323    5.25201556191927
C        -2.57866910855247   -4.11773699573796    2.62163388704410
H        -2.04871370066186   -4.04821183436806    1.64817239684215
C        -1.88772401028644   -6.35893575380085    2.85081362458492
H        -2.88144591428735   -6.75652687480393    2.63367326499256
H        -1.38900690150411   -6.98785635526056    3.58418434394823
H        -1.29836528128019   -6.32476570736897    1.92720712258232
C        -4.45095536032372   -4.00639941182609    1.17178226113205
H        -4.42335614741824   -2.91497682556019    1.09982548168222
H        -5.48323697620875   -4.34759895262164    1.14857094591057
H        -3.90305402050726   -4.42763766401485    0.32138429249335
S         1.83231396165017    1.12758596991418   -0.94627757265438
S        -0.81175688294965    0.87447538777305   -2.02710055122206
N         1.13886101146145    2.21980530878537   -3.28453537110864
O         1.97542558323781    5.07249280898065   -3.43415140654453
C         0.76183019446958    1.50879375018147   -2.22716043841460
C         2.47093544058272    2.76466803794046   -3.35994378363975
H         3.17752382863534    2.06381388136822   -2.90980245657139
H         2.73307021043093    2.93037897740488   -4.40513499617602
O         3.92034938620168    4.46475313031555   -2.39520506456335
C         0.21508211554873    2.60802419331703   -4.32403093964431
H        -0.79887611682961    2.34970068548260   -4.02612502595209
H         0.29417922908833    3.68347536103737   -4.48186245467762
H         0.45941311343202    2.08694733764668   -5.25201125206578
C         2.57866509192040    4.11773037127792   -2.62159551692294
H         2.04875683258459    4.04817781136276   -1.64811220495235
C         1.88759848915895    6.35890622387253   -2.85064290701137
H         2.88129733435647    6.75652397304552   -2.63344527337612
H         1.38887746596204    6.98785835301848   -3.58398435680224
H         1.29821542650150    6.32465353249211   -1.92705514302327
C         4.45099892937338    4.00643907467581   -1.17180309027565
H         4.42338137392643    2.91501835017994   -1.09982494683292
H         5.48328903551936    4.34761932599011   -1.14864401648218
H         3.90314170490016    4.42770562786025   -0.32138957214887

