47
CSD_code = FUHXEN | q = 0 | S = 0 | Stoichiometry = C12H24N2O4PdS4 | MND = 4
S         0.80289955810893   -0.63841030194343    2.08528911604036
Pd        0.00021388795386   -0.00007719310537    0.00012148368420
S        -1.87081680760575   -0.89590217691533    1.04036527690082
N        -1.10078447597465   -2.06671576046173    3.30765315296032
C        -0.75624367867828   -1.30585064008332    2.27123430901524
O        -1.87966163447610   -4.95781713571666    3.34879549381514
O        -3.81450013871415   -4.33617131306125    2.29903720217667
C        -2.41376348781394   -2.65774398056560    3.37319742032191
H        -3.14937056607993   -1.95974295496128    2.96771400481130
H        -2.65516866478370   -2.88296680566082    4.41208802242294
C        -0.14950088470817   -2.48560881523360    4.30988376492217
H         0.85567802267553   -2.20998208990670    3.99714175586868
H        -0.21875685121576   -3.56647346897867    4.43111811350693
H        -0.37363875260539   -1.99893130364527    5.26129097589752
C        -2.48485854401100   -3.97648121471416    2.56978748022471
H        -1.93709050679465   -3.85168690506444    1.61138257046879
C        -4.32701152167700   -3.83242834207523    1.08558749354524
H        -4.32075520063310   -2.73845886215740    1.06467908243603
H        -5.35085855044304   -4.19321902985280    1.02192345722585
H        -3.75081970335877   -4.20240277383627    0.23002276531197
C        -1.75332075448759   -6.21243649156732    2.70610350286480
H        -2.73320917867667   -6.61210131657701    2.43647838976319
H        -1.26958940200417   -6.87031136555805    3.42388248126054
H        -1.13451430227998   -6.12437618991783    1.80555230690191
S        -0.80247096392521    0.63793216948053   -2.08509740809902
S         1.87120232980150    0.89580112882821   -1.04013765593195
N         1.10110774876758    2.06633528524654   -3.30755748732386
C         0.75674760568780    1.30516710368488   -2.27129026094180
O         1.87936754356903    4.95774835627845   -3.34896732515885
O         3.81426521157483    4.33659086170762   -2.29904576730853
C         2.41392138472707    2.65773219842157   -3.37303474665741
H         3.14967260823867    1.95994517268706   -2.96743382416498
H         2.65533967732309    2.88289335450600   -4.41193525128901
C         0.14975860177422    2.48510018243373   -4.30980973169157
H        -0.85536353716909    2.20916402830407   -3.99721016889985
H         0.21870823114719    3.56598040754792   -4.43100179349603
H         0.37412219082312    1.99853842968712   -5.26120144259400
C         2.48470444473737    3.97661049880952   -2.56981633029235
H         1.93691767047157    3.85184022857723   -1.61141976268135
C         4.32678078351413    3.83312837758847   -1.08548481879345
H         4.32071857543543    2.73916027715032   -1.06440767594507
H         5.35055612917997    4.19411118595659   -1.02180316077096
H         3.75045898989202    4.20313893182939   -0.23002412016420
C         1.75291511923464    6.21246078691029   -2.70647586456072
H         2.73277388719843    6.61230025197501   -2.43700991562440
H         1.26902716893793    6.87015450154879   -3.42431366924058
H         1.13421073734229    6.12446271239781   -1.80585144071780

