56
CSD_code = FUHXIQ | q = 0 | S = 0 | Stoichiometry = C23H29BrNPPd | MND = 4
Pd        2.01938372711228    8.76471084758454    2.66300749632421
P         3.12784288369108   10.34696306727198    3.80288678460024
C         4.51018048254564   10.91787208845507    7.63411782282882
H         5.37922515492498   11.31910003589158    8.13498660233346
C         1.40667434024909   11.98910908459966    2.32143968486275
C         3.33190957573580   10.41308459552702    5.60789778650757
N         2.43853785360542   10.31057509028277    1.00948219476123
C         4.67296175070074   11.06003141238954    3.15176257436490
C         1.90803198261289   11.67007988426344    3.53540476058303
C         3.69651968832480    8.46681871614673    0.13489385237471
H         2.97513605927375    7.76576811842382    0.58459431409663
H         4.50907926474765    8.65780567572416    0.84123798032383
H         4.11199341937431    7.99724060371585   -0.75348659696408
C         3.00090766987715    9.78638393509724   -0.22773649769237
C         4.44953654415478   10.92866763539651    6.25098639155755
H         5.26787962477319   11.33574264665095    5.67321535624728
C         1.91635726042956    9.53945012183034   -1.28284576022189
H         1.43849934523884   10.47040799873031   -1.57936504731149
H         1.15440983225180    8.86909338646644   -0.89049599228302
H         2.35980286832459    9.08525821482988   -2.16490375941906
C         4.04398318533756   10.78293061964565   -0.75501546314332
H         3.57601896955887   11.71967730572773   -1.04993993349454
H         4.54763579071224   10.36279705954667   -1.62153780023110
H         4.78675729730072   10.99461740991642    0.01290978500367
C         1.80264701841609   11.41003376775175    1.06174418631843
H         1.55422809184750   11.99259422458081    0.16877023183043
C         2.28692052906896    9.87457889184584    6.35698028699915
H         1.43043715079177    9.45558783300826    5.83694826814979
C         4.83384548901923   12.39909477662060    2.81940650528194
H         4.02097534927595   13.09505751317229    2.97123464833614
C         3.46423691876849   10.39468909855149    8.37597301724372
H         3.51925411280631   10.38815769859104    9.45443557025751
C         2.35005406810391    9.87198424440782    7.73663673793355
H         1.53801120709730    9.45739015874471    8.31566814685330
C         6.03438012679706   12.83697064606082    2.28764904598211
H         6.15757991788256   13.87804856028344    2.02669011307164
C         5.72138984455328   10.16756136467566    2.94402626206096
H         5.57816736512105    9.12336307048123    3.19892468327676
C         6.92068890566609   10.60899045794639    2.41775422456013
H         7.73131247021542    9.91344240176469    2.25768502569323
C         7.07610827954259   11.94616075021336    2.08634044628062
H         8.00863532258455   12.29342353031430    1.66702372883107
C         0.44468668955333   13.14373043629207    2.40833062936153
H         0.92537252855763   14.05446885457445    2.03637713296881
H        -0.45275626280643   12.97334512130233    1.81344585817252
C         1.33210762620903   12.55758307070665    4.60512705767109
H         2.09016341995996   13.28430718460187    4.91757881565653
H         1.03253883494730   12.00365662870268    5.49493292773110
C         0.14162246614932   13.23716781963795    3.91079729914983
H        -0.76920619407260   12.67988701822989    4.13041182594125
H         0.00128110476011   14.26382513190456    4.24341249360645
Br        0.13189361592392    7.83970731565885    1.53749893673634
C         1.92371742098408    7.25843021923440    4.04617065714166
H         2.67771805306426    7.39404150011208    4.83076853292237
H         2.13282089002412    6.33748791419256    3.48404215946691
H         0.92780306835079    7.18054724173758    4.49581800852028

