53
CSD_code = FUHXUD | q = 1 | S = 0 | Stoichiometry = C21H28NOPRh(1+) | MND = 4
Rh        4.77408916043503    7.30304863527099    4.19635069872302
P         4.42129448422691    8.53805292805639    2.33471426683790
O         6.86220137061363    8.91577008043972    5.58831352916616
N         3.30553830385495    6.25954432979493    3.45578712102207
C         2.67810296725903    6.43618936704143    2.29049008514608
C         1.49116776421729    5.76462601460226    2.02720705954735
H         0.99266018267454    5.90028671727165    1.08072806912266
C         0.95376304678637    4.92759733010185    2.99485723446271
H         0.03167551973624    4.40205418296980    2.80329459629029
C         1.60098078841784    4.78075337420096    4.21272589813436
H         1.20156874123833    4.14933042025188    4.98944259796334
C         2.79059950902968    5.46623687564575    4.40792733970154
C         3.60610445343154    5.47849193375099    5.63967192103501
C         3.03088383106397    5.62591926788764    6.90065871607742
H         1.95709784246151    5.69871130366135    6.99106851266760
C         3.83328889246358    5.69640709102238    8.02518284582564
H         3.37938275507172    5.80906720427081    8.99730340879364
C         5.21510804252593    5.62268063760157    7.91063779567631
H         5.83105425117862    5.67782479367876    8.79433691097768
C         5.80341149907679    5.45408481800419    6.66952465196559
H         6.87502184510546    5.34507297927826    6.58863823079810
C         5.01533760667428    5.38978334706490    5.51781327135847
H         5.46571500614282    5.02599367361974    4.58379956364474
C         3.34085541341189    7.37982583665131    1.33943548802134
H         2.61584655576932    7.90277623758960    0.71336216154853
H         3.99615260233113    6.80223628326841    0.68092162490756
C         3.32238445850009   10.03408661598431    2.64479703344524
C         2.07212767396862    9.46331831994837    3.32167749375456
H         1.45338918392561   10.27639281046708    3.69577951684388
H         2.36024271941700    8.84169014530905    4.17879773019756
H         1.46629738123687    8.87142297693073    2.63865371960019
C         2.95388392836513   10.81071165444734    1.38642076462434
H         2.18231561082824   11.53988772735209    1.62733610478579
H         2.56491382150037   10.16241393034084    0.60398332751958
H         3.81052263086682   11.35558106843406    0.99882704102860
C         4.02797063530900   10.94145117520106    3.65238309665259
H         4.91937999986358   11.39925113242702    3.23590782584112
H         4.31020772674093   10.37100946541248    4.53946400672798
H         3.35543869951738   11.73958498012174    3.96031119508155
C         5.89946660306663    8.81781336303071    1.20555204729832
C         5.52961276020219    9.10101270051561   -0.24789088982327
H         4.97937648546002   10.03106677293287   -0.34904612332170
H         4.94111237528213    8.30000253942635   -0.68740839137532
H         6.44471447447671    9.19378148200397   -0.83005504737055
C         6.74587292252071    9.95814125828718    1.76654362778351
H         6.90587036972414    9.83011748329229    2.83612271762257
H         6.27703131910623   10.92222582276185    1.58817332222479
H         7.71826537067866    9.97038977172577    1.27829667159235
C         6.69260511386882    7.50917572511817    1.30617169936089
H         7.65700567053665    7.62019819621121    0.81593557528221
H         6.17334822073281    6.68209921507986    0.82517337582786
H         6.87143274019864    7.24936409997665    2.35668743955270
C         6.07960866913709    8.31464390355929    5.01481151838710

