47
CSD_code = FUJDOD | q = 0 | S = 0 | Stoichiometry = C24H22Ti | MND = 12
C         9.56390124516028    3.64358324551085   -0.37916321796640
C         9.22724780962853    3.04429543204096   -1.60514226270543
C         9.49456862568968    1.66980991007736   -1.50845135172699
C        10.00172506352837    1.41089001466301   -0.22251895835987
C        10.05799782199369    2.63522113049794    0.47804142232697
C         7.89659913960995    0.68885677503680    1.73206659681404
C         8.71708110993437    1.14250155895929    2.86765615742907
C        10.00828814758534    0.65664225895505    3.09177515366521
C        10.76313422924000    1.07469922483701    4.17165882683639
C        10.23668341733731    1.98046801817313    5.07675295542115
C         8.94634422968849    2.44929182620395    4.89579239086483
C         8.18534137643997    2.04694874134926    3.80756795773620
Ti        7.77992824044774    2.14719190236080    0.18641515892449
C         5.48241735499403    1.67126919213106    0.15030433151116
C         5.65765943079962    2.83132692429511   -0.63495963381190
C         6.36080797774430    2.46646476385234   -1.79686511554269
C         6.63051994746419    1.09058233103500   -1.73168744646323
C         6.09936633529799    0.59637138841027   -0.52799020394454
C         7.42768112796904    3.73125678404260    1.56327827941019
C         6.43303128733348    3.37088394868750    2.58763989649143
C         5.12612636598079    3.86562140422199    2.56023057535141
C         4.20572420965255    3.53699799020431    3.53774569253372
C         4.57444067941611    2.71575955611829    4.58958988532479
C         5.87359651052863    2.24132846415712    4.65758818269263
C         6.80136084145824    2.55375799186429    3.67429191057425
H         9.58799247151210    4.70920423323957   -0.18388826793613
H         8.94003381860786    3.57355130603988   -2.50307332963192
H         9.45268615744118    0.95635024276506   -2.31956930726831
H        10.43595800427897    0.47449602039047    0.09983242280767
H        10.53048002805566    2.79373568060609    1.43884535386819
H         4.86128157773060    1.59205336668875    1.03317246030284
H         5.18450328932697    3.78906524596057   -0.46717936606672
H         6.53621746527039    3.10787332822744   -2.64920796316850
H         7.05321517737212    0.48853696950582   -2.52397860378868
H         6.03684250550902   -0.44868492404120   -0.24829681591818
H         6.87466129744034    0.51002816864294    2.09073727610997
H         8.29571866933689   -0.24974682164527    1.31830265207171
H        10.42143928373111   -0.07914002230945    2.41391216321163
H        11.76036642532541    0.68349257244451    4.31440014149607
H        10.81990249220627    2.30794738035560    5.92455113486405
H         8.51830054515449    3.14345391903017    5.60564876750856
H         8.38032162605296    3.94689388354723    2.06420797313451
H         7.10655365809248    4.62842084278086    1.01241969387801
H         4.83183265875254    4.53771611730687    1.76447094392383
H         3.20143234444236    3.93263477008848    3.48539258624577
H         3.86108258130731    2.45867345559825    5.35845622636538
H         6.17780539813041    1.61342348709177    5.48352667460363

