133
CSD_code = FUJFAR | q = 0 | S = 0 | Stoichiometry = C48H80NiOP2Si | MND = 5
Ni       13.55007872849034   10.79607845708155    5.21286141167306
P        12.71611669843641    8.96158230111166    6.15017001906824
P        11.54108127671328   10.67755675149177    4.23877521909531
C        11.85688937864501    8.98838698391519    4.60340472842693
O        11.35603050692356    7.90578885927901    4.00267699766340
Si       11.35046000740166    6.79491069965927    2.81862555077539
C        10.30139830605803    5.40567357768755    3.58391497426481
C        10.49968095602486    7.41028136766476    1.23155903457714
C        13.09558506472911    6.17890401708018    2.35852503923943
C        12.07967914936230    6.35093112922194    6.87679835773859
C        12.11954613749514    4.98353795515756    6.62875994056895
C        13.14348246044658    4.38449783984316    5.91693824367656
C        14.23284429444125    5.17993507291520    5.59489547797857
C        14.25164980104117    6.55029277639048    5.80856682198040
C        13.08628817750722    7.16385344788717    6.31532021065783
C        13.15938650903139    2.90482554641727    5.56755680231544
C        11.85057760236734    2.19710166591873    5.93055444012162
C        14.30257988102769    2.22251443566164    6.33271586130216
C        13.37799380625720    2.74635815375625    4.05654897327373
C        15.57895538536548    7.29550437842194    5.64744228100741
C        16.75636091147041    6.35413142138776    5.34675472078565
C        15.55819915809140    8.33699558660937    4.52565899182228
C        15.87771563994809    7.95799648646170    6.99917109887902
C        11.01264974044873    6.87684636225776    7.84463050685450
C         9.93222835773842    7.69843098273348    7.13253690546483
C        10.28737404788730    5.73833007297995    8.58160055623871
C        11.69873294360383    7.71653564861293    8.93237207294815
C         9.35201354321151   10.71571975803709    2.50141780828712
C         8.73959629744636   10.57456035913722    1.26131462260563
C         9.44961388816644   10.50554315648865    0.07800583605264
C        10.82364486566233   10.66272334001660    0.15849952959940
C        11.50064206095398   10.78509119859191    1.36246025981618
C        10.76243608075003   10.71923420573343    2.56520034152156
C         8.78853842109242   10.33288487664025   -1.28034409479568
C         9.40537010399152    9.12436960508138   -1.99804588318182
C         9.02256654251331   11.60386061797058   -2.10939389088530
C         7.27871148401190   10.09837617757293   -1.17766146979868
C         8.43313058700046   10.88373083892717    3.71918818401263
C         6.98524962505598   11.22293697383459    3.32100772910167
C         8.37980365073487    9.56300573245560    4.49452686698068
C         8.90986272569110   12.03705915672232    4.62515998599264
C        12.99160965205423   11.12971610623091    1.30288546589074
C        13.10964486171946   12.58829230233036    1.76458534747601
C        13.85098591678114   10.21000380569637    2.18201974679987
C        13.57995585705432   11.05538826671623   -0.11561965097825
C        14.90045953091600   11.32338232717619    6.74540784463442
C        14.87334914621590   12.21981044340217    5.65818811326296
C        13.75962675252404   12.94442765495191    5.21930329871204
C        12.63952553796012   13.41711944974234    6.11470574264819
C        13.11055531576318   14.41813090678032    7.18809353643081
C        14.42293444131371   14.07723772046569    7.89371029035924
C        14.41793795442390   12.81567348387294    8.75588070436661
C        14.10758187133387   11.49844066520044    8.02313357088477
H        10.23069356540959    4.56118772472356    2.90611390601136
H         9.28986511288748    5.74236270831556    3.79105394311140
H        10.73080880805611    5.05488181390801    4.51648943927851
H        10.25096988761426    6.57033459739194    0.59003512730688
H        11.12753192135327    8.08517755973950    0.65882703622542
H         9.57929188175564    7.94189198540945    1.45263023961987
H        13.03343301955193    5.29911786627315    1.72544751601947
H        13.66166361100109    5.90784810696013    3.24409568926466
H        13.66451649416556    6.92545803297487    1.81025968994323
H        11.32326457724965    4.36471162804201    6.99588405192383
H        15.09078638579149    4.70410942175507    5.15422348565268
H        11.00343321158044    2.66517577504700    5.43444404942487
H        11.68354207681310    2.20219704335663    7.00527988820683
H        11.89849598962844    1.15899852716712    5.60708836483691
H        15.26742283216896    2.63824925414256    6.05492902492319
H        14.31605964819407    1.15620403507340    6.11626177755166
H        14.17020331438414    2.35588597978712    7.40463997655927
H        13.37685761754634    1.69209968641345    3.78655203472316
H        14.32680199452486    3.17348996271576    3.74433810361486
H        12.58222423022858    3.24688625836743    3.50991454708526
H        16.84524514221143    5.57218159311866    6.09748706328027
H        17.67879401514243    6.93223914469973    5.36253479327230
H        16.66920356961469    5.90311987911358    4.36029510561534
H        14.93056496728386    9.20053667958529    4.79389756660281
H        15.18080754820797    7.89726977539114    3.60624948935397
H        16.56619523196291    8.70704159764535    4.34491003121873
H        16.81563880718591    8.50788102320863    6.95181251153408
H        15.96026585890048    7.19963969229310    7.77583940949804
H        15.08151179053654    8.64467529556375    7.27521770484936
H        10.30162225115027    8.68587987755180    6.86907778085036
H         9.07023315529426    7.82510802458667    7.78476959756625
H         9.61072520122726    7.19215078953882    6.22576939224689
H        10.99088916239670    5.06325880952682    9.06372392684099
H         9.64130130525830    5.17372290043125    7.91336401635656
H         9.65668460402389    6.16945611216767    9.35701558635761
H        12.21087965724225    8.57858454186327    8.51048669709304
H        12.42855076442552    7.11108615945774    9.46619960228994
H        10.95998624528399    8.07877462331236    9.64418940293891
H         7.67005775834012   10.52002351058011    1.21239262990392
H        11.37692669181000   10.68430040361508   -0.76217102007543
H         8.93255707490330    8.98414542221889   -2.96806788170008
H         9.25867922549215    8.22311121228601   -1.40755510500248
H        10.47163273766544    9.25660727871018   -2.15868589297176
H         8.53857933916878   11.51440669462514   -3.07982448036923
H        10.08259524357500   11.77893385884008   -2.27250599346032
H         8.60971265313628   12.46962396269381   -1.59542498744387
H         7.06161690635110    9.21779173832944   -0.57708349030707
H         6.86861039825314    9.93643634445752   -2.17266163501340
H         6.77396184501477   10.95968664260453   -0.74609708940528
H         6.49456660026555   10.39842335518853    2.80941585177570
H         6.94630697468739   12.11197883342138    2.69531075623688
H         6.41052865292202   11.41768823912231    4.22461463469971
H         9.37281827095410    9.25474601380957    4.79982610791148
H         7.95939962946385    8.77783088516421    3.86879788670856
H         7.75915083262130    9.67042205708515    5.38151065588549
H         9.52372726643467   11.67613947659365    5.44607036361411
H         8.05716793338184   12.55401701146201    5.05996451875201
H         9.48533121290058   12.76377118094853    4.05462253452654
H        12.67421941295504   12.70107595528279    2.75494335172706
H        12.57597744062904   13.24559734733424    1.08013687553891
H        14.15410567352851   12.89299661627809    1.79694784721986
H        13.98500477741534   10.64037097426133    3.19070274380187
H        14.84515094598538   10.09097724783600    1.75469743191217
H        13.39510159275979    9.22550938036424    2.26774959560226
H        13.49989308330076   10.05095291568684   -0.52718987025735
H        14.63609434233731   11.31641325861971   -0.06964987958050
H        13.10678456233491   11.76420417636132   -0.79099248722828
H        15.86547374429001   10.84872690099889    6.90923934148544
H        15.75115004541016   12.22995060271339    5.01113880370201
H        13.93294070066273   13.59010536114258    4.36251156185983
H        11.88647636653652   13.91426461723156    5.49723478430982
H        12.13792982526858   12.57340028312801    6.59533662895785
H        12.31573425077218   14.52256974165232    7.93034764144463
H        13.24423808394237   15.39340653300349    6.71119318366765
H        15.21930419970758   14.00065850252888    7.15082812990830
H        14.67515474837510   14.91899551125561    8.54553287848933
H        15.40644565266113   12.73166414995742    9.21647999598703
H        13.68937428346689   12.93196702048091    9.56209909765418
H        13.03223331346120   11.43499083312604    7.84350066940326
H        14.35780860833387   10.67484235486574    8.69845066692418

