54
CSD_code = FUJMII | q = 0 | S = 0 | Stoichiometry = C21H28ClNOPRh | MND = 4
Rh        1.59339334356195    4.76461645090709    7.64249454441481
Cl        3.08041653754825    5.33018835246295    9.37365323305470
P        -0.45040569019755    3.90783776985437    7.14993908559097
O         3.46435922564515    2.54071177356342    7.01278021579052
N         0.50623293162619    6.39043588943928    8.03871911589559
C        -0.78399715730879    6.31746847264571    8.38992045930024
C        -1.50484739271913    7.44572158294199    8.74975433946823
H        -2.54018963296052    7.35191607040860    9.04011015807520
C        -0.88066387634997    8.68414262395243    8.73726266440974
H        -1.41924977985286    9.57273820826337    9.02902665852057
C         0.43227107807934    8.75929353396950    8.31457439476932
H         0.94101849675240    9.70705158872724    8.24037567733634
C         1.10174192132265    7.59197800007064    7.95664790376784
C        -1.41619687198323    4.96184225012056    8.34876978755248
H        -2.48622725498464    5.02768046956584    8.13576895373162
H        -1.28145388811987    4.48946107273577    9.32690830175348
C        -1.31552773884958    4.22381613012907    5.48680164665831
C        -1.39238983107732    5.74562117163664    5.33139673876080
H        -1.68608036456547    5.99891744928319    4.31328995689021
H        -0.42091849513914    6.20257475720215    5.52070786270615
H        -2.12156438377380    6.18539462494778    6.00892282526439
C        -0.37391281113704    3.68270179712181    4.40931058244416
H        -0.34139322134750    2.59684889326790    4.41481193409522
H         0.63927665256306    4.05051425914021    4.58116445117437
H        -0.69882271834441    4.00763741773871    3.42187561475884
C        -2.71111163487711    3.63341945007297    5.32650342503423
H        -3.35281357195200    3.89094815896113    6.16633275942961
H        -2.67296224657211    2.55238590897154    5.22623553822553
H        -3.16860350723956    4.03197244687511    4.42108134189940
C        -0.82716769650174    2.17636819800482    7.82490459609358
C        -0.22609564673432    1.15725579842703    6.85784706927537
H         0.80481763560210    1.42129807018772    6.62554307738667
H        -0.79462214627626    1.10739205933835    5.93181912894457
H        -0.23246884799632    0.16436715416359    7.30517808516017
C        -2.30047676036527    1.85698537768573    8.07935887537155
H        -2.36008439882042    0.93790883850279    8.66183537271145
H        -2.85220021456960    1.69691556508754    7.15922682215813
H        -2.79150440358646    2.64210546926899    8.64962557965076
C        -0.07746960467648    2.09618321844940    9.16304191506439
H         0.10127651886758    1.05555873559148    9.42659513591893
H        -0.65272071035259    2.54433423164034    9.97099871939731
H         0.89208210431631    2.60381181208119    9.10840463016776
C         2.47215610476873    7.62067821892419    7.43114527317994
C         2.81522149097267    6.79382903351947    6.35151865814899
H         2.03912318704629    6.27573756419064    5.77882776652485
C         4.12444670851307    6.76133292495599    5.89645153649185
H         4.38539901400474    6.12671734838880    5.06183142142736
C         5.09642975258196    7.53029583127320    6.51414100374040
H         6.12011590065239    7.48010210430101    6.17438074791348
C         4.75469609457106    8.36541914258680    7.56486337812440
H         5.51170424389311    8.96610270865276    8.04626950004452
C         3.44964131653482    8.41748972032632    8.01772449698439
H         3.19587369873056    9.03316843897846    8.86754833270098
C         2.70124854106881    3.36130586050861    7.26327870662856

