71
CSD_code = FUJMAA | q = 0 | S = 0 | Stoichiometry = C36H28AgNO3P2 | MND = 4
Ag        2.89949004681799    3.96045510332905   12.15756532541300
P         2.52533524237110    1.61647195441568   11.17612160125443
P         0.63375460633669    5.03121731528211   12.22381481527379
O         4.41229551001327    3.82123076670534   14.01329009714147
O         5.16704220156298    4.61757339102159   12.20825316609058
O         0.42079376598602    3.02835993277920   10.34635891667661
C         0.87852900162511    0.86955484921581   11.01767950576236
C        -0.08460542229076    1.77782382832717   10.55818047590543
C        -1.40843956427652    1.40144515231403   10.42653358402789
H        -2.14955579545471    2.10554375638057   10.07850736334769
C        -1.77396484484646    0.10908172259824   10.77187024200212
H        -2.80559731359669   -0.19173873195279   10.66824110048140
C        -0.83777174262916   -0.78484002372980   11.26091257899653
H        -1.14045170275226   -1.78215265763094   11.54171160210483
C         0.48795992209421   -0.40478936601069   11.39362394920380
H         1.22073198996491   -1.09607575692362   11.78344396687361
C         2.98491995063243    1.80746081908086    9.42213883588356
C         4.01105429446451    2.70481909913877    9.14219413547168
H         4.47666248550210    3.25479176183653    9.95644784855126
C         4.43193681887475    2.89731024478749    7.83945376823339
H         5.22949081853350    3.59414312470093    7.62908824655643
C         3.82589358259607    2.19956209876306    6.80698695133031
H         4.15148881350380    2.34948115402505    5.78805956124520
C         2.79717525622345    1.31288758353618    7.08013688313370
H         2.32127887935565    0.77216204060868    6.27420584200442
C         2.37515528039001    1.11338414622084    8.38255322581484
H         1.56474247485913    0.42631544830223    8.58886291836517
C         3.55422709021003    0.19287047244419   11.66629971394243
C         3.74741801090269   -0.92106518235118   10.85507868720875
H         3.28383523163642   -0.96573269988559    9.87919093513141
C         4.53861112828394   -1.96438961249292   11.29840095000433
H         4.68870119320458   -2.82998427823666   10.66912900733988
C         5.14256040664028   -1.90069586059235   12.54492841269630
H         5.76155838277008   -2.71831437410265   12.88425446280909
C         4.96150604670034   -0.78815137538045   13.34966705551035
H         5.44126061840433   -0.73317302020964   14.31545366272075
C         4.17063140291863    0.25917147519312   12.91139608456157
H         4.03558505124822    1.14333833096756   13.52421501887508
C        -0.37620075545923    5.19665900627751   10.71932936644154
C        -0.35812437556631    4.06521342871865    9.89530167515596
C        -1.02051079666105    4.05728325744502    8.68065135581772
H        -0.98289379339300    3.18078395151964    8.05039205317526
C        -1.70903181665012    5.19376252092231    8.28485227224875
H        -2.23145134411252    5.19601774444347    7.34023021426915
C        -1.71866547688142    6.32491194039660    9.08466349289424
H        -2.25135673757658    7.20656414049368    8.76140704183748
C        -1.04456832197877    6.33603522423201   10.29441314591957
H        -1.04490929989672    7.22090320149810   10.91473842782056
C        -0.27169125142037    3.71201128436074   13.09961636965788
C         0.46282297594551    2.92368288433305   13.98085074427397
H         1.51091962024064    3.15894678489795   14.16329616171229
C        -0.13137352284469    1.85183479212775   14.62006554182845
H         0.44849111046462    1.23892392083184   15.29359482417202
C        -1.46596109790962    1.56181098934952   14.38729538031228
H        -1.92976502252722    0.71851385789898   14.87684626013104
C        -2.20638771290059    2.35283784618144   13.52532389223795
H        -3.24842584836108    2.12976663963413   13.34704474207480
C        -1.61438346507423    3.42345137412051   12.87931535171702
H        -2.19349021360411    4.02593166462407   12.19105671779435
C         0.16590821616015    6.53357092764632   13.14808346886148
C        -1.05738405725724    6.68637588957061   13.79198052988183
H        -1.78523595135602    5.88773839685855   13.77048994272532
C        -1.33574421633595    7.85976455787241   14.46864082103058
H        -2.28542625054210    7.97681205340303   14.97039636677942
C        -0.40091798268522    8.88236900582399   14.50808944186619
H        -0.62408211967683    9.79533360184774   15.04011837520584
C         0.82170125929466    8.73061509140459   13.87493603563999
H         1.55431749908127    9.52304760530509   13.91303854378252
C         1.10704696687389    7.55702158290207   13.20126793455530
H         2.06617300187806    7.41981801379466   12.71634225775187
N         5.38826166198565    4.28233418681445   13.38978075246441

