35
CSD_code = FUJPAD | q = 1 | S = 0 | Stoichiometry = C17H11BrCuN2O3(1+) | MND = 4
C         2.07674939072938   10.08297163421759    8.96526762497275
H         1.68157681298980   10.75644853768587    9.71753247829747
C         1.87428479046864   10.27286134696840    7.60644867066011
H         1.29717674189339   11.11560126695495    7.26217137317812
C         2.42704291836354    9.36149091126628    6.71937249477495
H         2.29128508196660    9.47998872107441    5.65519930307659
C         3.16007468792887    8.29128221883269    7.21241103843701
H         3.59990455134801    7.57489247664255    6.53820054572170
C         3.32079000680161    8.15714355374397    8.58713628876975
C         4.05122882059012    7.08655061218319    9.26195169699443
C         4.65783835915145    6.00424808641275    8.63283904439387
H         4.61703130889018    5.90527792975915    7.56063328180823
C         5.31147044387230    5.05280060865749    9.40104967706933
H         5.78924813818517    4.20828367013646    8.92856775653866
C         5.33785489130692    5.19872664017673   10.78017878491234
H         5.83129883404118    4.47814027509164   11.41175582338583
C         4.71179513249704    6.29944515596546   11.34284281479331
H         4.68491488319932    6.46949697722761   12.41105253006830
C         3.42095432976653    9.01503890477041   14.02174008330077
C         4.12329333232697    8.62619623507984   15.18193059925800
H         4.70598521269708    7.71968478495770   15.14391017930406
C         3.99767056017780    9.33146366141558   16.35341339296139
H         4.51048351478533    8.99562699999776   17.24164610192395
C         3.20943286786909   10.48013100453280   16.39773350647806
C         2.55808110601830   10.91903020106214   15.25968518068839
H         1.97416535373965   11.82810310179820   15.25119672426997
C         2.66453258122459   10.19959455096702   14.07833341747290
C         2.01475980163929   10.77280330072681   12.86163473762850
N         2.77481742050025    9.05873276323060    9.42407507284603
N         4.09848820646034    7.20882256779570   10.60248670625151
O         2.29724881901187   10.24084648279207   11.69459819073990
O         3.49346234775192    8.22688315227311   12.97192259950828
O         1.26887007259065   11.71806826842373   12.93497388923531
Cu        3.16382977982255    8.73509064418535   11.28347842433437
Br        3.07205889939216   11.46343275298669   18.00762996594849

