43
CSD_code = FUJQAE | q = 0 | S = 0 | Stoichiometry = C17H15BrN3O6V | MND = 6
V        -0.74240110265335    3.22211098621825    3.56498631473581
Br       -2.06808813980547    1.42064783646600    7.38836555828701
N         1.21536548450242    3.60620567709740    3.70956817217407
N         1.71445174719331    4.34974297990865    2.73052037181687
N        -2.99287588043664    4.68692761948088    3.63431607063779
O        -0.64637539107207    2.88840975114783    5.25368249898641
O        -0.45347190871157    4.41943346120610    2.15451665759343
O         2.10533079320676    7.80087159560078   -2.58293759023542
O        -1.08687316438674    5.42640281338866    4.51236609895734
O        -2.42858604808987    3.49682659823634    3.40174704812018
O        -0.45096902943197    1.88312427107217    2.90659790046071
C         1.58998125533603    2.23684803155744    5.64006735433938
C         0.20315817707332    2.20235464350665    5.94497122948928
C        -0.20887237209177    1.43046540651279    7.04212927419382
C         0.67869248024308    0.71546088585832    7.81359989885023
H         0.31845252487568    0.12904035423280    8.64469702666784
C         2.03649708138545    0.76609092316845    7.50892029286152
H         2.73445366081381    0.20962490043656    8.11418081029245
C         2.48424349195987    1.51861543404147    6.44534393173558
H         3.53737700957840    1.55343667814000    6.20975412861669
C         2.02656226814309    3.04105209557387    4.54190518287718
H         3.09694613977086    3.18784150191095    4.39203334192691
C         0.75919698626554    4.73343013867706    1.91216105801277
C         1.10093288152271    5.52737607907992    0.73039076534458
C         0.10489794107314    5.87576310913026   -0.17841029397581
H        -0.90646075539206    5.54104450839042    0.00308547931956
C         0.39647551403302    6.63166966955858   -1.29680312165534
H        -0.39668969834116    6.88367665132903   -1.98296236302797
C         1.70430520096179    7.05530470801299   -1.52548922820727
C         2.70741306894879    6.70332957017204   -0.61367730603445
H         3.71292452533923    7.03857304947680   -0.81291681220570
C         2.41249525754277    5.94944686052476    0.49643490979698
H         3.17970038935978    5.67133521245888    1.20019287882895
C         1.15171525615072    8.18937200350726   -3.54418165288592
H         0.69499134345521    7.32169376024580   -4.03001252286971
H         1.70040252639415    8.76874728268370   -4.28490453370974
H         0.36949199230551    8.81520322254336   -3.10317136431546
C        -2.95805413815201    6.94586715091615    4.51766461321883
H        -2.94690781318001    7.12153820479002    5.59169260137478
H        -3.98322697664978    6.94693918879960    4.16072221032572
H        -2.40503349157007    7.75540656858242    4.04580291070643
C        -2.25859587228724    5.64288186789633    4.22952979835135
H        -3.97517321518172    4.76756674845810    3.38462040022524

