35
CSD_code = FUJQOQ | q = 0 | S = 0 | Stoichiometry = C12H16Cl2N4Ni | MND = 6
Ni       -2.60567456607662   -0.00003521190521    5.50996216213242
N        -0.75617325979558    0.88809721363456    5.65821410367216
C        -0.39798270818477    1.13040978451639    7.01633109002891
C         0.23863423445759    2.29400301036626    7.41123302008110
Cl       -3.52516526653007    1.62612934928195    6.54493281519366
N        -1.54052343626683   -0.92054042228983    7.54045960411705
C         0.10014048781487    1.60494521431291    9.70186919938615
C        -0.79691527208764    0.18663355183904    7.97660485976534
C        -0.55060759388633    0.44537340071541    9.31796170997717
C         0.49895026500396    2.52774100962616    8.75150447566334
H         0.28743452638841    1.79083006512817   10.74844245149726
H         0.51521902845123    3.02922069362998    6.66819892456182
H        -1.05495797490321   -1.51840711350709    6.87155022144288
H        -0.64023199504253    1.73242655739382    5.09979459590229
H        -1.90625671676591   -1.46794833825154    8.31039113028156
H        -0.88763190413142   -0.26088089768480   10.06365381742317
H         0.99833863519842    3.43623231185296    9.05038421575689
H        -0.21031387384356    0.12964749352576    5.23615968470386
N        -4.45529123678752   -0.88791522396412    5.36174032056630
C        -4.81353836165060   -1.13031920054454    4.00365579818502
C        -5.45017489106586   -2.29393524468984    3.60884763373578
C        -5.71049580292398   -2.52775731790590    2.26859531454909
C        -5.31163205583022   -1.60505244640669    1.31815967195772
C        -4.66081319082435   -0.44548710663852    1.70196875320284
C        -4.41452025793444   -0.18663963800313    3.04332081999593
N        -3.67075004858633    0.92044626689836    3.47941494919352
Cl       -1.68638349255268   -1.62598485646155    4.47446228334977
H        -4.15617165356831    1.51833274311197    4.14839268293119
H        -3.30505515286735    1.46783878838694    2.70946070625563
H        -4.32371730548680    0.26067195041600    0.95621505862483
H        -5.49889519552134   -1.79104029469519    0.27159247259621
H        -6.20989952055507   -3.43626225570492    1.96978365960805
H        -5.72673863891577   -3.02910180054189    4.35193257917735
H        -4.57118948509498   -1.73222144031851    5.92019339066696
H        -5.00111631963412   -0.12945059512386    5.78381582381629

