83
CSD_code = FUJRAE | q = 0 | S = 0 | Stoichiometry = C29H45BN4O3Zr | MND = 9
Zr        7.15604097014333    2.53536924712379   10.61967124213814
B         4.65578403755002    4.65122400170254   11.30296812551554
C         3.68968354136365    9.10928833635589    9.94455958270588
H         2.86230097114253    8.97000839208279    9.25406121872171
H         4.08378753878530   10.11789164218207    9.83384292399754
H         3.31595868408957    8.97850828316943   10.95774117249410
C         5.28282626652732    8.23080473571668    8.21576797900040
H         6.06602650675260    7.50320548203686    8.01115450676260
H         5.67806777009975    9.23263286405706    8.05871246418429
H         4.46302237776839    8.05611074201876    7.52437863429905
C         5.93479267390194    8.13406763829521   10.68990138526742
H         6.91205320016157    8.29453317359371   10.22175582629421
H         5.77117033833802    8.90163225224966   11.45266870946773
C         4.88237349226390    6.13944654638649   10.74765697284150
C         7.29813276407131    3.50090057252809   13.82617289391868
C         6.97610396050725    2.18306073539888   14.53674553737090
H         5.90125839672327    2.08700988923023   14.68269417249739
H         7.46837666650338    2.14105476645909   15.50637948639011
H         7.31825688011309    1.35923716023043   13.91482069065496
C         8.80687040354813    3.66252989959283   13.65306906050131
H         9.17409094065801    2.85971196841877   13.01154569200091
H         9.30616675990801    3.61964671818047   14.61989169548246
H         9.02750581777258    4.61977542926416   13.18326752957182
C         6.63935335556974    4.71139892248412   14.53177263146735
H         6.16731550603682    4.44907554880265   15.48225794353952
H         7.33686526417629    5.53968518431006   14.69302284653561
C         5.71096363983601    4.42121178725372   12.51289264796038
C         5.00342193972195    3.52541146465278   10.19973365641644
C         5.69064715357633    3.65248758617571    8.96549700710655
H         5.90764458711261    4.59044616906960    8.46508589085523
C         5.80668012837095    2.37166406684071    8.37649921432248
H         6.11656969384509    2.17194510489849    7.35777494225879
C         5.23295629863334    1.43312268120712    9.25539789782366
H         5.04136074529685    0.38760202541796    9.03565861403877
C         4.74187612845270    2.14179379226817   10.37587877602206
H         4.10660982507770    1.73079442863534   11.15336806776561
C         6.72690285375187   -0.28139505939932   11.80666796390584
H         6.82033624073607   -1.10396288687047   11.06696061971152
H         5.70383008350524    0.10121979335521   11.77685138364889
H         6.88515227125718   -0.74315100961339   12.79996333302544
C         9.01208685857284    0.28548131382814   11.84968647056627
H         9.13069669645306    0.02496682477704   12.92105938447873
H         9.76819052116942    1.03163788760668   11.59596590730351
H         9.24309579520056   -0.64349123746118   11.28954100419464
C         8.28377710405812    0.01473254316585    8.42586379944366
H         7.21174402477250   -0.21117576261542    8.36696968954486
H         8.74332438113358   -0.62118904399747    9.18682150924431
C         8.95057130982624   -0.14043775923087    7.05919056498600
H         8.47847085344478   -0.91369980963573    6.45813208553488
H        10.00841841812339   -0.38021271062770    7.17282176570022
C         8.78836318123419    1.25843555741377    6.47307983039983
H         9.51087465695835    1.48017325910273    5.69136737223654
H         7.78373241973913    1.38717879200568    6.07072966049654
C         8.99627773695852    2.12060146993434    7.71414157611286
H        10.07037291339964    2.26302341101345    7.88982781679377
H         8.50339110159835    3.09699879461846    7.67133336781717
C        10.19359465857276    3.56543135169986   10.33074006786312
H        10.66490996738676    4.05347351848846    9.45502185669173
H        10.43743003401285    2.50066446893273   10.29754511239673
H        10.68115327471204    4.00378566475532   11.22403395201211
C         8.49676951175616    5.19207001317435   10.26029995461973
H         9.05460397716466    5.75429752937720   11.03451732635637
H         7.43328703980467    5.39799590501315   10.39949195644613
H         8.81991435442255    5.61067113784272    9.28455975031763
C         4.77701099205124    8.07541466743907    9.65093579401654
C         3.16256302403787    4.42863467079695   11.88811744131966
C         2.92239034562175    3.53359789123133   12.92851405637621
H         3.75428925365179    3.00219487115397   13.37824588154030
C         1.64518935811713    3.29842930858711   13.40765387925159
H         1.49016794216938    2.59853469891482   14.21925987901565
C         0.56440539403600    3.95722861445844   12.84879648551850
H        -0.43522428637701    3.77762384453306   13.22088893635648
C         0.77774746385102    4.84536537880206   11.80798787941669
H        -0.06244785798074    5.36137538532185   11.36265865800115
C         2.05871507947610    5.07315683568116   11.33723419686988
H         2.22664026804172    5.76311026275791   10.52434640607644
N         4.24050485034778    6.73991860273580    9.83924818841439
N         6.62971179934776    3.50737351938398   12.51633260701193
N         7.68374670106915    0.78179607533338   11.56257083543101
N         8.76233993930469    3.76890296415040   10.33595119305117
O         5.92175126669676    6.85823573472211   11.30558998361883
O         5.62910821419775    5.13893449376566   13.62640017374618
O         8.43720278819347    1.38975898519343    8.81891480484863

