30
CSD_code = FUJTAG | q = 0 | S = 0 | Stoichiometry = C12H9BCrN2O5 | MND = 6
Cr        8.59943041229493    4.53817620094600   18.67579344833279
O         9.54162410710684    2.76596777285026   16.42454133442110
O         6.19008576721208    2.76813174977957   19.11016328512991
O         7.89654198022810    6.13704912532300   21.14100074320060
O        11.20772519477408    6.02425916487746   18.36472101347183
O        10.06601577274125    2.67430108196565   20.52891324027985
N         7.28925630174723    6.36899696643899   16.52636637624481
N         7.41414833439678    6.69588973861364   14.11116832351639
B         6.90497209379354    7.11978278837522   15.37411835609613
C         9.14818888186010    3.45361785250664   17.25858102250191
C         7.06913311425005    3.47923594813276   18.91588267709359
C         8.12463202396083    5.57566198132219   20.16779639258041
C        10.19015840366914    5.50297202920306   18.47654638991543
C         9.50022663806567    3.38933753959044   19.82984198387036
C         7.71421893020255    5.71318439495077   17.39838733996857
C         6.01218066727872    8.33513054804591   15.39668340126573
H         5.56931361402677    8.72971472521511   16.30036588570423
C         5.75574834719438    8.97023096555371   14.21512592168247
H         5.12399827857214    9.84754288679323   14.17439293100220
C         6.31152916100205    8.49544099254224   13.01070652827136
H         6.10229669443267    9.00612696126328   12.08442066125006
C         7.11171189789134    7.39255411528639   12.99523897466108
H         7.53231829103719    7.03067834909100   12.06568957610144
C         8.30496904195178    5.55495959449683   13.98210533984316
H         8.24928585061920    5.16824317027093   12.96026896119880
H         7.97309304065741    4.77047298992230   14.66722394066129
C         9.74673600016209    5.93625787490053   14.31117631393447
H        10.39126575426327    5.06856664593791   14.20135788587578
H         9.81886489712722    6.29355831707634   15.33616948417052
H        10.09603050747953    6.72005752870918   13.64225226776768

