71
CSD_code = FUJZAL | q = 0 | S = 0 | Stoichiometry = C26H42O2Ru | MND = 8
Ru       -2.52133968094950    0.27280320636436    2.65896561721972
O        -2.87636333284760    0.26417544050809    5.64895051210501
C        -2.73910243887694    0.27000668778106    4.50698227984926
C        -1.05396562767783    1.94015931688444    2.87581162059870
C        -0.34713890040809    0.72672117199206    2.87351303013944
C         0.43410772230087    0.31481542135195    4.09458798671623
C         1.82829113229852    0.96515792350981    4.03337763862238
C         1.80907897870843    2.49134009088490    3.88225290238647
C         1.67171411813761    3.01772995179621    2.43819340238745
C         0.39335633098003    3.81095614990005    2.13992236678826
C        -0.82337170983241    2.94164876454428    1.77351522761561
C        -1.83148014243042   -1.84514718356281    2.79090897835633
C        -0.87903540361367   -2.43442544436819    1.78255779005847
C        -0.78171496947393   -3.95232119324134    2.02100782049522
C        -2.12872914600054   -4.68535586299789    1.99567930563257
H        -1.17871717916823    2.42510712298893    3.84721029234259
H         0.17938032012410    0.47546948666231    1.94938021801126
H        -0.07443386600841    0.64429244606985    5.00420681085125
H         0.56612920363646   -0.76833665205685    4.15170076371332
H         2.35569296709018    0.71164633521456    4.95657000120851
H         2.39362040626114    0.52842692265723    3.20709681011899
H         1.01189688729150    2.89808889246383    4.50472597521342
H         2.74881304542286    2.86874099329396    4.29201762774018
H         2.51730939265187    3.67962965417052    2.23733447746061
H         1.74795427481784    2.19133645559831    1.73130145514839
H         0.14527696067659    4.43224635652948    3.00338250228485
H         0.58715785340331    4.48418858446005    1.30090353461906
H        -1.68254554354687    3.60174317142635    1.63203926450953
H        -0.62621105853936    2.43167866058673    0.82711984946541
H        -1.53410925282397   -2.07897383814332    3.81629942202820
H         0.12471795510789   -2.01163666385369    1.86991646555824
H        -1.23710617030104   -2.25433744072049    0.76574618438880
H        -0.28979149660347   -4.13565783016466    2.97893270307412
H        -0.14040512479496   -4.37207752553934    1.24175280635115
H        -2.74388855461318   -4.26708552059305    1.19873672322804
H        -1.92671195123765   -5.72353062721310    1.72217315165995
C        -2.30327353586125    0.26999066345270    0.81112827513470
C        -3.98891964016981    1.94009355209935    2.44415615118760
C        -4.69582344142054    0.72669676653610    2.44648894775638
C        -3.21134162025770   -1.84511521892891    2.52907926955697
C        -2.91411566563483   -4.68537815262556    3.32397255390527
O        -2.16644318880000    0.26420093095567   -0.33080914633169
C        -4.21955012748162    2.94172851821790    3.54627866175077
H        -3.86397919721797    2.42494611712859    1.47273959679844
C        -5.47692592035692    0.31474806325405    1.22530565562075
H        -5.22249021701699    0.47561847696087    3.37058922911179
C        -4.16382904060815   -2.43452073082379    3.53727765368405
H        -3.50875357097734   -2.07871368742973    1.50365009530796
C        -4.26115583480940   -3.95239298219183    3.29867867304486
H        -2.29896329418524   -4.26710903058970    4.12092214059560
H        -3.11610735704518   -5.72356299706138    3.59744964789355
C        -5.43622721014343    3.81104416346510    3.17972376105514
H        -3.36033328550771    3.60178229538248    3.68768219998715
H        -4.41670401098528    2.43178093025206    4.49268159091112
C        -6.87109448254670    0.96513085815901    1.28637241231732
H        -4.96838663564793    0.64418443493225    0.31566184259705
H        -5.60899202944291   -0.76839827703065    1.16817849551358
H        -5.16755850996118   -2.01168688049649    3.44987409814731
H        -3.80575355561648   -2.25443582897471    4.55408192408046
H        -4.75305746789848   -4.13568537963042    2.34072962127250
H        -4.90246989088140   -4.37219228561912    4.07790291889682
C        -6.71455565038287    3.01777090545914    2.88145761938177
H        -5.18812463942268    4.43227226578584    2.31622175319883
H        -5.63004262180363    4.48432657000673    4.01869606749178
C        -6.85191417877118    2.49132294758393    1.43741773923062
H        -7.39846665210991    0.71157759704077    0.36317223453087
H        -7.43645473860310    0.52842971133089    2.11264408516658
H        -7.56015887554847    3.67966649903207    3.08228457235485
H        -6.79078721234285    2.19140050060471    3.58837897684441
H        -6.05473565299121    2.89805359043987    0.81493053580291
H        -7.79164704670976    2.86870166813883    1.02762662825659

