71
CSD_code = FULBUK | q = 0 | S = 0 | Stoichiometry = C20H40N6S4Zn | MND = 4
C         3.28787495982474    5.63081779315924    5.90271469099039
H         3.34677149483002    4.78882173836677    5.21755838336889
H         3.84994156027209    5.39180271771900    6.80139874657680
H         3.74383789422176    6.49835741533179    5.43197687889289
C         1.83229422084400    5.90139841337501    6.27110729519731
H         1.43361830475928    5.05940638974302    6.83919645195949
H         1.75990223323895    6.80245167219117    6.89112066451966
C         0.07341628461529    5.18980951752417    4.72311410181106
C        -1.43649810739952    4.91800920602120    2.84592934643417
C        -3.45575734440725    4.87006767005995    1.47531591575115
H        -4.50764432373929    4.91275654090961    1.76821058861520
H        -3.18174394085070    3.82737277186762    1.29877635429193
C        -3.22206498511854    5.67628993840365    0.20072668339903
H        -3.46053731360354    6.72601545213518    0.35791558812204
H        -3.84588432518617    5.29090653139755   -0.60074150029186
H        -2.18013317816111    5.59395132840750   -0.09633278743042
C         1.19153259062640    7.26377133120531    4.29228471561986
H         1.78114658674016    7.97338875376269    4.87540309719437
H         0.21236339065897    7.70722783225576    4.08265773538773
C         1.89350034853783    6.94783832335161    2.97374624140635
H         2.85456592517493    6.47308318405356    3.15015665211527
H         2.04876816550034    7.86430787388202    2.41013030534117
H         1.28699802837430    6.27250784124115    2.37633146601552
C        -3.25048148685298    6.38073687396507    3.43767337116351
H        -4.00906230623084    6.91718883951779    2.86411429282916
H        -2.46399200374071    7.08275036708914    3.72716761361976
C        -3.86656664459335    5.75795440042846    4.68785132702529
H        -4.64588396011517    5.04887021279910    4.41790847575979
H        -4.29928470660035    6.53153149338086    5.31643975775840
H        -3.10388584331962    5.23231027271225    5.25703775907091
C        -0.21578505988534   -2.58979222623009    1.10608672588386
H         0.56307499254286   -3.30841525992769    0.85975998589777
H        -1.13406673611447   -2.88134807894140    0.60437446280895
H        -0.38307994356494   -2.60719132012666    2.17965159054706
C         0.18800706114812   -1.18297454498273    0.67453780981793
H         0.32249076038769   -1.13749071738939   -0.40892830050848
H        -0.59586342121009   -0.47754488757641    0.96037316574495
C         1.46268432091007   -0.12436893046455    2.46435847215182
C         3.14146222819327    1.04004105246181    3.76421231282625
C         4.73452583610840    1.64385820925927    5.51115673553689
H         4.90429811769485    2.54672539705666    4.92110353614844
H         5.70302708694989    1.21817253001168    5.78384297655704
C         3.93122315761410    1.98705303362151    6.76364489913726
H         2.97163716542031    2.41592289226408    6.48548244888342
H         4.47430580649717    2.70891137353807    7.36692741664718
H         3.74905950200730    1.09713210038746    7.36208281186066
C         2.66802566368824   -1.02187785956173    0.59054934907992
H         2.51239928154472   -1.87247682616225   -0.07611247110780
H         3.43030371426228   -1.28634229652546    1.32868729823153
C         3.12047127869740    0.20215641589707   -0.20139911713307
H         2.36289311066866    0.48892521605944   -0.92716334027014
H         4.04688721701777   -0.01288191575518   -0.72727605238452
H         3.28686412210634    1.04016921793406    0.47077849480713
C         4.28867217715843   -0.72628255536374    4.93838141803845
H         3.38404182340835   -1.28711734608301    4.69194039450817
H         4.49812327795075   -0.85129813790587    6.00332564846279
C         5.45863918324039   -1.24296164423804    4.10516828773809
H         5.24914971949609   -1.10306347385901    3.04792845828761
H         5.61430862776148   -2.30108350001650    4.29694561330982
H         6.37217618864010   -0.70557727486931    4.34900091894371
N         0.98962205517283    6.08297231447087    5.11138345592554
N        -0.74270883156301    5.52219170656737    3.76959343010437
N        -2.66511613875314    5.37316742960987    2.57544463822955
N         1.42685952637214   -0.77080049300711    1.29511370209665
N         2.62201160031205    0.12175012227995    3.00176266523676
N         4.03980175955273    0.67878689840400    4.68716421284864
S        -0.15131053598143    3.72154328677392    5.62488473627593
S        -0.74274492763851    3.72724674304430    1.80952858377805
S        -0.01827817444258    0.13663824799344    3.32412409959017
S         2.87856466981457    2.71994210539316    3.46047231105369
Zn        0.42643121856908    2.51238029985696    3.58731600223477

