105
CSD_code = FULBAR | q = 0 | S = 0 | Stoichiometry = C52H47FeNO2P2 | MND = 8
Fe        7.99454877603124    3.80626075287070   14.77271398320080
P         9.62362209856863    2.49667104428379   15.16132085654085
P         6.69388476189350    2.27083320950719   15.51685477061687
O        10.38373704506349    8.60895208415217   29.92228976832929
O        12.00633695413291    9.80164165063011   29.16058603396759
N        11.09404776762868    9.00680278911882   29.01545109559996
C         7.43844812069560    5.83403699158637   14.51319195541581
C         6.54771388319631    4.99663737056285   13.79922378301737
C         7.30621562780555    4.26925398511816   12.81892334213669
C         8.66048407155439    4.66351495889198   12.93649939519303
C         8.75611139051323    5.58723454947345   14.02504675068110
C         7.08316685176950    6.88928303567505   15.50948310201938
H         7.64486138369163    6.75256198494956   16.43210885362557
H         7.33003377380649    7.87205833143014   15.10593623659522
H         6.02098396089048    6.86977874561750   15.73876598816138
C         5.05524262237577    5.02710682174341   13.86784697531033
H         4.63350479446186    4.12142062289338   13.43944270980631
H         4.70720116539921    5.11713185170139   14.89473141583490
H         4.67571772558942    5.88101154633987   13.30292788954388
C         6.70766778276356    3.46880926447899   11.70527126312740
H         7.48260953185603    2.98949387220727   11.11248712708668
H         6.03346496807249    2.70103881476757   12.08365588509785
H         6.13207485722105    4.12184850994032   11.04663627355296
C         9.75200445857602    4.32826928016393   11.97187003231096
H         9.86646705625676    3.25369011804239   11.84005614579453
H         9.52082764586800    4.76370778932974   10.99808244149929
H        10.69957475465835    4.73947025016636   12.30836634518231
C         9.97018436923887    6.32798137498208   14.47833821766670
H         9.93136177523878    6.46287059843237   15.55677789821683
H        10.87810301218357    5.77830927111180   14.24224848680391
H        10.02267726423396    7.31103452282759   14.00730171265833
C         9.10018031177119    1.32800059655915   16.50166123405146
H         9.81425472634281    0.50379917203484   16.60308122856141
H         9.05512782061983    1.88951663911571   17.43705309850244
C         7.70886642847283    0.82791078875413   16.13264504877706
H         7.22209356579721    0.34388734519245   16.98368128087307
H         7.78830898565188    0.10028784963717   15.31986791110673
C        10.10242425257591    1.23897180712637   13.91574252362797
C        11.23480880673052    0.43901126063425   14.02132732634882
H        11.92073300632240    0.58376897737780   14.84520466101331
C        11.48117456496220   -0.53334293318961   13.06901238862286
H        12.36177069263925   -1.15421113872356   13.14998392562057
C        10.60237471693714   -0.71679269438879   12.01218051290052
H        10.80220416510151   -1.47754965265594   11.27192984093381
C         9.47007052206721    0.07389162445500   11.90585818504939
H         8.78307425373030   -0.06871286261698   11.08348607490404
C         9.22524035205713    1.04850931388131   12.85673560067877
H         8.35070985825159    1.68360684615947   12.80554388394880
C        11.25387629901462    3.09601042275691   15.69057382304200
C        12.17016137175337    3.43955458492901   14.69842113129631
H        11.92375492868513    3.24149540682199   13.66374463279784
C        13.38473965904651    4.00962495356312   15.02858689880250
H        14.08963975564170    4.26906535625378   14.25151820168929
C        13.69521427187147    4.25305825003139   16.35710947601585
H        14.64148845431713    4.70421083024572   16.61700439557153
C        12.78980744629758    3.91569057494507   17.34907534720261
H        13.02914150861033    4.10357887680474   18.38580817692798
C        11.57394448847490    3.34263542576899   17.02071287767329
H        10.87205550891343    3.09369390574476   17.80060739609827
C         5.67835282930773    2.64998499706347   16.99010000853354
C         5.58546267875144    3.97160371698966   17.40442982326356
H         6.13452651917656    4.72015111073464   16.85533483034159
C         4.83358223352843    4.30580217385127   18.51700937017689
H         4.77452015107631    5.33546115010474   18.83913215078090
C         4.16373276109556    3.31862578291594   19.22012200096961
H         3.58157736212856    3.57439010758673   20.09339195394911
C         4.23565920397330    1.99937746604921   18.79956491681587
H         3.70314814665174    1.23070171684546   19.34117974457964
C         4.98448895429608    1.66430816150035   17.68689088325326
H         5.01688626912461    0.63677304995026   17.34879528726706
C         5.42472856803228    1.41591484440059   14.51043833901768
C         4.09246695565026    1.81692484537657   14.59352516782714
H         3.80504174952721    2.56208891477019   15.32153872036269
C         3.13442257747776    1.26142477532589   13.76568127197321
H         2.10514467482744    1.57921630801642   13.84840839312879
C         3.49168757479491    0.30314024404366   12.83165293639400
H         2.74359565375799   -0.13128758996464   12.18540874846718
C         4.81522381651151   -0.09097821244032   12.72830240554049
H         5.10269989149548   -0.83352763021407   11.99787202026246
C         5.77504015005550    0.46711473565733   13.55333494068996
H         6.80402941255264    0.15649135599285   13.44787431789383
C         8.45546149004003    4.18700873946595   16.54594361188878
C         8.76185097686325    4.64984803469165   17.62834720763032
C         9.04835643868636    5.15224899192061   18.91001935796778
C         8.27864240829369    4.74972522348846   20.01139049654268
H         7.46519529965508    4.05458753804595   19.85389487977257
C         8.55014256760872    5.23596721813960   21.26691717071229
H         7.95518843268078    4.92743833877753   22.11504747348856
C         9.60347329418516    6.13969369782224   21.46393745251885
C        10.37686387584779    6.54001302129121   20.36603202081315
H        11.19094365151769    7.23432783352361   20.52021255682359
C        10.10250866062261    6.05450786743533   19.11010772159756
H        10.70146672075935    6.35781443539639   18.26212668630692
C         9.87517380281491    6.63533305484888   22.74762247069253
C        10.09579359267238    7.06322295745154   23.85937287088201
C        10.34796200433984    7.55163088581096   25.14897453018991
C         9.55940612178525    7.12656473241088   26.22931827344853
H         8.76073250551882    6.42186355492150   26.05308207210572
C         9.80268641270502    7.60313518714150   27.49512224679846
H         9.20807448331426    7.28910196335206   28.33941539617702
C        10.83945044529488    8.51319041861244   27.70046189556978
C        11.63076769322559    8.94586484757076   26.63659284794189
H        12.42449263029324    9.65147764612916   26.82922891595352
C        11.38671486242224    8.46839695518567   25.37108723707970
H        11.99021252120004    8.79324731183397   24.53696255838855

