78
CSD_code = FULGUO | q = 0 | S = 0 | Stoichiometry = C34H38NiO3P2 | MND = 4
Ni        2.88260851838667    4.10238480426086    0.54010280907849
P         4.87146685252000    3.46271715240480    1.12401205448361
P         0.79241503040411    4.76103748564948    0.34911935351559
O         3.48725669766769    6.59790408306575    1.35735014163560
O         2.44365501264637    2.14062415009375    0.53031508118940
O         2.98440986240881    0.03189045461458    1.06842132337361
C         3.49754137065706    5.79028991841634    0.46378676308815
C         4.60761448073471    1.71397655191742    1.37692497574121
C         3.31789249124660    1.34906525237220    0.99431563860753
C         1.68921193189675   -0.30030104988486    0.61806105978033
C        -0.01086677183395    4.61186609954933   -1.30786754955195
C         0.15238357672238    3.20602093765983   -1.87574351441362
C        -0.27250848975492    3.69928607131574    1.41186502665098
C         0.29258360073296    3.67472957580822    2.82664629297799
C         0.36005955766434    6.49104605910157    0.83806078561278
C        -1.11416737427137    6.80218171118078    1.05822944283890
C         3.99341348067227    6.05304461081897   -0.91588997045039
C         3.86627572598562    5.06435906632120   -1.89378245688535
C         4.37673206186916    5.27141179492624   -3.15862390480496
C         5.02103778233088    6.46435382329244   -3.45471520668699
C         5.14221470156826    7.45232785626048   -2.49132385782256
C         4.62861367521918    7.25251793794251   -1.22307040750289
C         5.59173315630793    0.88156651767992    2.04759465447741
C         5.22678489191022   -0.21001938272974    2.84115715699001
C         6.18275123086543   -0.96432838707245    3.49093392274835
C         7.52762136968735   -0.65038088330315    3.38061768124273
C         7.90521048903643    0.42968528983644    2.60119161043059
C         6.95197470871282    1.18149495164513    1.94490954577277
C         5.48308620857823    4.12026691967405    2.70240338805449
C         6.81402202181259    4.23854548282871    3.08089183012146
C         7.12721098781248    4.68393606472622    4.35330582424214
C         6.12413543324806    5.01444498839875    5.24879284794896
C         4.79428608695826    4.90909210341820    4.87163709639686
C         4.47859400494536    4.46417734844159    3.60405674763071
C         6.19203754603508    3.75493131151887   -0.09657160345230
C         6.86389351884661    4.97391466757631   -0.12648128802717
C         7.75548827316596    5.24737322387246   -1.14631701077672
C         7.97090711155134    4.31733711643163   -2.15077180411359
C         7.29383734601052    3.10850709981029   -2.13371081071701
C         6.40291637135369    2.83006901822278   -1.11474740899791
H         0.92677182485797    0.19802549215869    1.22399754887566
H         1.60370261413319   -1.37994738997073    0.72321122916572
H         1.55125903117820   -0.01150640736224   -0.42763449478496
H         0.48308872881703    5.33983209617315   -1.95938616617759
H        -1.06779072000623    4.87910292064371   -1.23608744788688
H        -0.03266370172586    3.19721747744802   -2.94815886167657
H        -0.54208204597806    2.51495805957687   -1.40428394195895
H         1.16303403151477    2.84299994607229   -1.69122979547467
H        -0.22287012944112    2.69533056643258    0.98554096215667
H        -1.30981034278994    4.04217537328688    1.38706036353735
H         1.33774010309921    3.35655553318928    2.78276004472140
H        -0.25413274771198    2.97635521909836    3.45797899023960
H         0.25264580689783    4.66165925224577    3.28474594993080
H         0.76681244517164    7.13098547309944    0.04855602145738
H         0.93057010580974    6.71509156738218    1.74370006187040
H        -1.71007472004663    6.55292744383741    0.18344921400257
H        -1.23495770749539    7.86606686268685    1.25338794260584
H        -1.50789015065389    6.26062324837077    1.91433896443110
H         3.36745015280149    4.11960857847350   -1.64006780697416
H         4.28603477117023    4.50578922359708   -3.91478944278429
H         5.43147685656206    6.62151563428153   -4.44125146154024
H         5.64355453486794    8.37880057399278   -2.72976062248565
H         4.71957500938760    8.00718353306588   -0.45585679089982
H         4.18448759725968   -0.46256008470844    2.94954943634216
H         5.87517677492561   -1.80363975403065    4.09962566664868
H         8.27162230949333   -1.24089320350793    3.89542057147156
H         8.95133700475264    0.68501708256676    2.49969856019783
H         7.26191603775972    2.00481614169870    1.31685357829336
H         7.60526051555996    3.99574707557232    2.38753421782473
H         8.16316438554785    4.77319658471109    4.64758196638879
H         6.37895705955467    5.36140110921543    6.23968947331887
H         4.01097735636890    5.17902522958166    5.56502991243610
H         3.44308551004902    4.39159352689302    3.27882486645690
H         6.67914237372623    5.70277704019496    0.65125729389749
H         8.28024771017277    6.19174245722898   -1.16310813709222
H         8.66561020683048    4.53619081053639   -2.94846817399214
H         7.46061912934907    2.38431053423721   -2.91808339401395
H         5.86741774597371    1.88987737335227   -1.08581255863880

