107
CSD_code = FULKAA | q = 0 | S = 0 | Stoichiometry = C36H66O2P2Pd | MND = 4
Pd        3.73812080009294    5.50558335131532   -0.78164160655903
P         5.19537131876135    4.15688691038046   -1.89086139105635
P         4.36933618695339    5.91077539125052    1.37242378325699
O         2.38235542374467    5.91610504557872   -2.10759243026392
O         2.07297000900776    6.48079621383814   -0.91439607434248
C         5.27786820069459    4.86185619740437   -3.61618557401505
C         2.81952778098835    5.60749206126770    2.36286262884742
C         5.85823921022476    5.20033106376220    2.27279212164815
C         6.92114424607516    3.69844627087951   -1.32263844858928
C         6.94983402834898    3.04369298381649    2.95624355727793
C         2.20392004283363    4.26664120901426    1.94499490202334
C         5.67831471785061    8.04474074423817    0.35374765228049
C         1.45589671679173    5.61939253583946    4.44692995403566
C         5.65002950765659    3.70504986267278    2.50767750403601
C         2.87060582013407    5.73923756785824    3.88108394969538
C         4.67020764531455    7.75376651955090    1.47242156005204
C         3.38800855240976    8.54927226124502    1.22610445768367
C         4.36611892820243    2.49987440362880   -2.11569396135708
C         9.11441940328160    4.65602477277851   -0.57907819682102
C         7.64687657939204    5.20356759065487    4.01499254842263
C         5.96111873749517    9.53516911538873    0.20546770940236
C         7.81842993394866    4.93468422394568   -1.33489769488981
C         6.22563870172264    4.23157544369225   -4.63146963259171
C         6.34511305733403    5.86481302862420    3.55852335632721
H         6.53387886451538    6.92692060232547    3.39900781479577
H         5.59825302205014    5.76664418351082    4.34566188781965
C         2.94434513146050    2.71281933330219   -2.64069195262357
C         7.63964087607363    2.52653473719306   -1.98689118749130
C         5.49139005058919    6.37835233419835   -3.54249332421476
C         4.66288371962741   10.28303228396678   -0.07059947420744
C         5.26314100781590    6.99847438674465   -4.91813632436080
C         3.68269237756256   10.03964736376048    1.07026336036470
C         9.84000613722627    3.46924762784775   -1.20711836869113
C         4.28702549118956    1.84535698630312   -0.73334844140255
C         0.79744869578586    4.14346543795379    2.52443216501105
C         8.93786695212044    2.23843788750252   -1.23104357736612
C         0.83120921330498    4.28604393369636    4.04427884323463
C         5.97876801477148    4.85227819995761   -6.00617709869987
C         7.45696200346302    3.70579390310570    4.23346803557817
H         6.73298157251619    3.54532833701239    5.03582775947730
H         8.40144567261463    3.25240718386722    4.54139498014373
C         2.08719449467769    0.78798520264325   -1.28031537431248
C         6.18737917587182    6.36338639936489   -5.95403290353095
C         2.15573653720146    1.40707842469229   -2.67084729815363
C         3.49817160081272    0.53999025445429   -0.76182076818969
H         4.00481257524058   -0.17794002158932   -1.41228136968145
H         3.46241946191044    0.11199983706139    0.24273600596829
H         2.74887396600699   10.57204886921464    0.88030734323278
H         1.41692165111616    3.46833025876056    4.47275934818484
H        10.75169033613053    3.25019644451118   -0.64735490747264
H         6.67152993082248    9.69498958259202   -0.60869550854408
H         6.65504757878317    4.40717865415263   -6.74001273787002
H         4.95502483636493    4.63939949085203   -6.32206505661827
H         5.99727807760854    6.79740089271345   -6.93776038683877
H         7.22739217543004    6.57588580159206   -5.69197905008572
H         4.22330993380527    6.84169396047730   -5.21208781201946
H         5.43930914079706    8.07539698564886   -4.87426890962192
H         8.70147507126445    1.94280291916558   -0.20550551853239
H         9.46158920862058    1.40526958305132   -1.70465978631032
H         4.85724965656111   11.35190480395898   -0.18111811516187
H         4.22644355476981    9.91827956663627   -1.00292318369343
H         4.24580591363186    4.72334906005682   -3.96993493236962
H         1.48384866221964    5.70427620534244    5.53592871922389
H         0.84126518653122    6.43678992000998    4.06316242324561
H         0.16524951379719    4.92553732774666    2.09920499908915
H         0.36483113093592    3.17810496523807    2.25236950077870
H         3.48597576426239    4.94602554458556    4.31007902969833
H         3.30407812396693    6.70180559379981    4.16304802484598
H         8.41734212450273    5.36275895157508    3.25605306310246
H         7.98962221572129    5.67255824945495    4.93985117893637
H         6.78641195142714    1.97700201635878    3.12582068877995
H         7.70411754910135    3.14496482589116    2.17167657657487
H         1.56831250872824    1.47288038439518   -0.60575258937305
H         1.52611252111843   -0.14828091174263   -1.30989626590485
H         4.10621168027357   10.42902561815764    2.00115557084456
H         9.75671023324844    5.53940892759074   -0.59850121584549
H         8.88890773821229    4.43089036687086    0.46651692935359
H         7.01553716353000    1.63217374893429   -1.97779016440290
H         7.87741508120571    2.76130645933850   -3.02344248350098
H         8.06611954289185    5.20203263506523   -2.36332007039046
H         7.28232616906331    5.77618986491443   -0.88490444626721
H         5.28795714850407    1.65194360800462   -0.34055818838996
H         3.78138508197813    2.55588920401811   -0.06335376850304
H         1.14871919430633    1.60141179629882   -3.04426912119525
H         2.63744608165467    0.70476195549139   -3.35726558555621
H         2.42975571387890    3.43602730408035   -1.98838614156167
H         2.96547790106454    3.13370427564061   -3.64738567084854
H         6.61393975372849    7.51084616516467    0.54686540161363
H         5.24691666755222    7.66577580015567   -0.59287839390005
H         4.89858117445858    3.55552052382829    3.28456963826872
H         5.28427011642812    3.24099877267031    1.58807030711432
H         2.15316864109010    4.22918642313664    0.84027560688825
H         2.81438857464376    3.43162811955926    2.29788700056393
H         7.26269731197595    4.42006611446135   -4.34732303510132
H         6.07112842892673    3.15116224318957   -4.68000463206237
H         4.76954359350573    6.80556738878210   -2.82572897221745
H         6.50277270193274    6.61253779934020   -3.20227387588770
H        10.13017322792352    3.72413148522955   -2.22915597289637
H         6.41456387542740    9.91605168491071    1.12489783356934
H         5.08901518458533    8.03697726863130    2.44469325323164
H        -0.18146972696536    4.21581525562059    4.44620128008928
H         6.75758244573648    3.43152502291588   -0.26856114496527
H         4.92976211099924    1.86716315260505   -2.81227371727593
H         6.65754154973392    5.30622477321540    1.52414667071071
H         2.14359859503175    6.37820223626774    1.96533130609386
H         2.90373868038515    8.17558693821851    0.31592565670037
H         2.69639188140301    8.41925753432033    2.06110994630355

