66
CSD_code = FULMOP | q = 1 | S = 0 | Stoichiometry = C27H33ClNiPS3(1+) | MND = 5
Ni        2.70562429692912    5.74065002787610    4.76100843452615
Cl        2.69483465305629    7.01941411395989    6.37727400706707
P         2.69238159583097    4.43560336033558    3.11029414603730
S         2.48328069984601    7.53657699439921    2.92176979795287
S         4.93280798164969    5.08275946985914    5.15193853073395
S         0.47958183295777    4.90267999559175    5.16712993454845
C         2.19556527079457    5.17068190590653    1.52004071244639
C         2.21381755241677    6.56586002366759    1.44284188690722
C         1.91792053450161    7.20151924762307    0.24759286469039
H         1.92396364324211    8.27919478576255    0.19862325774389
C         1.59733784619735    6.44774177190764   -0.86869926815394
H         1.37247607057062    6.94242171217357   -1.80044163555658
C         1.52970547904907    5.06509132026470   -0.78387434184172
H         1.24514032013368    4.48476662708716   -1.64776883177801
C         1.82042618114899    4.42455222849811    0.40766156874380
H         1.73896875946371    3.34972213426231    0.47955689979013
C         4.32911763964115    3.69249906402521    2.82106763573071
C         5.27576997305170    3.92883421005088    3.82033302003360
C         6.53714421256969    3.36116809639073    3.73860431716691
H         7.26804809735487    3.56146397787869    4.50696656867287
C         6.85792690736800    2.55891497710484    2.65669098143923
H         7.83760170027116    2.11202637774244    2.59520443567454
C         5.93849362486393    2.35965326567394    1.63821690537775
H         6.20546939788364    1.76258356147051    0.78015065904240
C         4.67946647456423    2.92899989053192    1.71262607675502
H         3.97914871109850    2.79653587310607    0.90169636574326
C         1.52558818259737    3.06389162481787    3.37314280229962
C         0.50825426882139    3.33640754569628    4.29024848137500
C        -0.44229648463973    2.37575033810189    4.59036677662959
H        -1.20865694528501    2.58893293665091    5.31880799756029
C        -0.38414011721062    1.13943999168199    3.96636826495562
H        -1.12333892666929    0.38905943254208    4.19830970189023
C         0.63306982689655    0.85716442868868    3.06879724054167
H         0.68791933245784   -0.11489412486768    2.60371313229981
C         1.59307036110890    1.81134448976023    2.77516619945289
H         2.40553191318474    1.57132308566914    2.10560592264965
C         4.11524370787276    8.33381529150584    2.57464890181358
H         3.92535116807467    9.02402574244779    1.74960649420972
C         5.14964824957133    7.29923449748978    2.18318503396248
H         4.84713702687758    6.73935320573702    1.29881285382434
H         5.31439785414604    6.60373588068125    3.00615096589658
H         6.09290010512241    7.79531641486788    1.96549797420329
C         4.49017824142564    9.08302006303079    3.83889838420234
H         3.74146584815634    9.83313595618328    4.08182724005002
H         5.44893151201235    9.57805964797792    3.70763621986160
H         4.56688286390928    8.38980794193809    4.67679049700184
C         4.84428136497486    3.93062900522952    6.59546398839631
H         5.65868333941689    3.22021937801025    6.43496567237686
C         3.49869474118355    3.23445644041223    6.59076099818318
H         3.35999764308007    2.64073314311326    5.68471517161312
H         2.70160791468159    3.98388152657494    6.66620610746217
H         3.41716052555024    2.56989949566151    7.44828063567236
C         5.07254873795153    4.75520844567107    7.84733326214403
H         6.04336347829581    5.24392686703088    7.81950278802067
H         5.03308224000419    4.11166938024686    8.72283494279870
H         4.30214388493988    5.51801982666706    7.94120425173369
C        -0.57854443216873    5.93797439292847    4.04810093336514
H        -0.07420995760045    5.95022979159618    3.07666181442655
C        -1.95892016254368    5.32463560413167    3.92780620500817
H        -1.92320525030419    4.34210589561887    3.46152649361257
H        -2.58284531715939    5.96965308335114    3.31277217782306
H        -2.42273331127617    5.23565797130449    4.90750130277853
C        -0.61496873034062    7.32601515859439    4.65936683049410
H         0.39200139037048    7.70389834815507    4.83042881436702
H        -1.14051027846038    7.30625289661138    5.61118309558348
H        -1.12968526548065    8.01039394533825    3.98969849997445

