37
CSD_code = FULTUC | q = 0 | S = 0 | Stoichiometry = C6H10N8NiO12 | MND = 6
Ni        3.33961082734219    5.78985003955526    8.65941227999025
O         7.02394996712459    4.06664050497956    4.86762522268771
O         7.65275330581614    5.98961514987036    4.12318130053851
O         3.45943786916343    8.48576731577272    7.95805999036159
O         4.57503363951325    9.56576572958019    6.46677627537680
O         2.43150572992046    4.24435165928972    7.04472630485042
O         1.50286940931828    6.68645718671165    7.80196241214322
N         4.50295955697819    6.15667712755313    7.26532935187707
N         5.77044967659949    7.19759461686611    5.71606066573569
N         6.98178396871834    5.28321469877940    4.83176265679671
N         4.28089059651394    8.54172088684234    7.02592295417184
C         5.26305725371929    5.23234281910714    6.67233787445599
H         5.26968372537602    4.19413766259281    6.94296335911916
C         6.04330185556398    5.88824423332521    5.71101154241508
C         4.85214564449854    7.32925478289033    6.65633024416656
H         2.52935332254564    3.45135588023680    7.59197399137882
H         2.97180778950706    4.09571775636498    6.26325090062247
H         1.23850767299782    6.23464132835143    6.99429957991295
H         1.66701844537303    7.61892661790016    7.61013018169547
O        -0.34896537459349    7.49158911498339   12.46270859488375
O        -0.96792993378919    5.56321842599483   13.20138210170497
O         3.22979927070639    3.10925096821710    9.34295245718943
O         2.12875178256781    2.01043772043008   10.83161930760515
O         4.23590304056399    7.35057664238995   10.26309844875278
O         5.18292001889178    4.91154973036419    9.52544687047883
N         2.17687859348083    5.42317448214631   10.05296739458822
N         0.91775088242507    4.36949548124645   11.60043370046901
N        -0.30160721270935    6.27508313380934   12.49389298874263
N         2.41335610234418    3.04066425493337   10.27877193909592
C         1.41342378877955    6.34134902348559   10.65096246568080
H         1.40010434364117    7.38043628414962   10.38432484317544
C         0.63835674499777    5.67751956876413   11.61108046491429
C         1.83499231022004    4.24659490524446   10.65794023494540
H         4.13651261230852    8.13811287150250    9.70845979766261
H         3.69416095953138    7.50434996593089   11.04222122941896
H         5.44268492447724    5.36758418168491   10.33268752032290
H         5.03328688956569    3.97673724815385    9.71733255207355

