57
CSD_code = FULTAJ | q = 1 | S = 0 | Stoichiometry = C24H28AgN4(1+) | MND = 2
Ag       -0.80638808112192    4.92114815695684    3.80061973612867
N        -1.17447258982011    4.11396185200839    6.84705657083470
N        -0.22665846939373    6.05363582523898    6.67257683719514
C        -0.69972581271608    5.00996090701847    5.96059147998858
C        -1.02137837802907    4.58059648173906    8.13362967067901
C        -1.34837308482227    4.04338932851579    9.37128680226110
H        -1.82594100990505    3.08158863078310    9.45998846003721
C        -1.04273751818897    4.80259178303401   10.48210242040298
H        -1.28113363809946    4.42311274823150   11.46296680129147
C        -0.43279537663860    6.05397520263730   10.37085504437479
H        -0.21463068440056    6.61066303412294   11.26841933517153
C        -0.10537692203362    6.59560540696101    9.14477076479705
H         0.36277388850944    7.56389633003311    9.06904756518322
C        -0.40806152393643    5.83884915146869    8.02042464336409
C        -1.79297810785182    2.85389276247698    6.51381000023493
H        -1.30880330750600    2.05105245503016    7.07745469519501
H        -1.62868426170258    2.68170662144096    5.43886423141765
C        -3.26814857914216    2.88015728522221    6.79975515787979
H        -3.79600923582272    3.72764877640314    6.38202968620059
C        -3.90151673476914    1.95744582461174    7.49679228842441
H        -3.38889344051708    1.10564087012029    7.91355394282912
H        -4.96212812627727    2.00549210452942    7.66832608206898
C         0.33485265345476    7.25013302213757    6.09722785250867
H         0.79172125141955    6.98170194967653    5.13600183833441
H         1.11636458683349    7.62331976064080    6.76262729563690
C        -0.73724868300007    8.31520693734052    5.88413397623366
H        -0.29438446154681    9.20633461834874    5.44962313079246
H        -1.20330367740748    8.58351325898272    6.82899147010488
H        -1.50704496012108    7.94023988191425    5.20946357607486
N        -0.44098130960834    4.11273403740180    0.75332878161479
N        -1.38904047852379    6.05213627697275    0.92955709255617
C        -0.91434044956521    5.00859097645768    1.64066429669433
C        -0.59658857411991    4.57934160608401   -0.53296124743272
C        -0.27187904273728    4.04218979863391   -1.77124521509826
H         0.20574184594884    3.08049559611640   -1.86086954799726
C        -0.57994489642302    4.80126894128183   -2.88147950307037
H        -0.34344862235640    4.42178648593664   -3.86280548956715
C        -1.19002939851557    6.05248645572474   -2.76907648866259
H        -1.41014178185647    6.60908192746494   -3.66622050087752
C        -1.51518381460126    6.59406423490546   -1.54237047026742
H        -1.98344058825402    7.56223523025626   -1.46572496255743
C        -1.21007329550858    5.83741594939370   -0.41861378286829
C         0.17829959541768    2.85271302971750    1.08539236668230
H        -0.30689348664504    2.04982414631516    0.52269810362128
H         0.01609538684086    2.68056391922667    2.16062568575775
C         1.65292194407746    2.87888463836119    0.79675985579683
H         2.18153206602042    3.72663523901864    1.21317055485213
C         2.28495341628302    1.95611723726115    0.09853229144367
H         1.77141076846498    1.10500050880708   -0.31817758668866
H         3.34510562705277    2.00473242526784   -0.07586573692822
C        -1.94998682845160    7.24837061832587    1.50600565904523
H        -2.40546113242688    6.97958147319946    2.46781791712076
H        -2.73252768358330    7.62156202030248    0.84181662428665
C        -0.87781761789437    8.31359958234549    1.71795853664338
H        -1.32028113761955    9.20455830382228    2.15323058337709
H        -0.41298372636798    8.58219321800306    0.77257492649166
H        -0.10711250049449    7.93857515577061    2.39158590038830

