51
CSD_code = FULWOA | q = 0 | S = 0 | Stoichiometry = C22H18CdN6O4 | MND = 6
C         5.81362808643866   13.00282617741697    5.42953171144014
H         5.37241528771620   13.97697412641209    5.22014602604697
H         6.87233840091673   13.13445618039444    5.63139824796361
H         5.33528287179955   12.59676711644843    6.32032109307361
C         5.63026420585138   12.08361774005707    4.27770802146249
C         6.54262857733267   11.39828861065681    3.50295158693116
H         7.60914033986607   11.39884257144267    3.58900824237328
C         5.77678086127290   10.66937369715672    2.57897881762182
C         6.17899892389311    9.64091540126065    1.52895139624039
C         3.38608514371518    3.54752364165549    1.63188985188343
H         2.92311838109763    3.26676463193433    0.68624234481340
H         3.07448953032230    2.84266673206002    2.39679207004970
H         4.46734669013414    3.48106111995591    1.51465829515695
C         2.99050971258526    4.92422761727856    2.02355167233431
C         2.36420500839292    5.40658591689002    3.15380258810215
H         2.02690958513782    4.85280716832799    4.00494422629584
C         2.27750445816689    6.79572869407019    2.97009979031905
C         1.78544546156550    7.90031001221240    3.89771115532355
C         4.32424460654893    9.79777651770652   -1.23612013691832
H         5.13149568653918    9.17158967729161   -0.88179226551159
C         1.22082604809968   10.96625267482733    0.15128135059023
C         4.36973015276731   10.37775729824224   -2.51099174735738
H         5.21958264485165   10.19656131073015   -3.14942934366540
C         2.30107979055183   10.76459841298584   -0.77799703762663
C         3.32683233440854   11.17076418986261   -2.91989358918719
H         3.32148513537185   11.63470453906786   -3.89612512784154
C         2.24461211922141   11.38314033152560   -2.04776336787744
C         1.11804641602016   12.18271956692640   -2.39486212342914
H         1.10189956393836   12.64273382536823   -3.37211046055519
C         0.09354249839826   12.35872010511354   -1.52681686902087
H        -0.76245488446822   12.96102886238171   -1.79401017351747
C         0.11558663746741   11.75861095372641   -0.23520534368263
C        -0.92420941318263   11.91777578297454    0.69762673420981
H        -1.78703010654550   12.51350466373918    0.43496519640111
C        -0.82088391439558   11.31167654964886    1.92488829924374
H        -1.60025887859019   11.40793144285283    2.66398590321286
C         0.32275753166839   10.55596082141638    2.21669591144467
H         0.43958424864073   10.07201636680197    3.17682816544679
Cd        3.35290133800534    9.24927542124730    1.89020343100906
N         4.48747956568103   10.92187226161702    2.76369507654682
N         4.40807080197856   11.77213583975870    3.79192266927773
H         3.50868217072138   12.04516162131746    4.16094948447881
N         2.79120570691529    7.12764017632032    1.79239584156526
N         3.22261845940813    5.99401802544815    1.23099758113416
H         3.71524157984576    6.01410162502367    0.34974467881443
N         3.32731541075503    9.98592107617567   -0.40199697340374
N         1.30512393936068   10.39092934184154    1.36067837899473
O         5.35633238827759    8.67797207664733    1.41529674071747
O         7.21002863570373    9.79573882811199    0.89332205847662
O         2.44812362963647    8.98178367978879    3.80463128645061
O         0.83381663017561    7.69198897790579    4.63371863412146

