35
CSD_code = FULXIU | q = 0 | S = 0 | Stoichiometry = C12H19FN2Pd | MND = 4
Pd        2.72537052520488    5.97777362164240    2.16276154170817
F         1.82602957507871    6.99729802887806    0.61728734324753
N         4.42300457615167    7.16534814610651    2.34115015603770
N         1.28049411159935    4.50355745264841    2.41492522083432
C         5.12545830453268    6.90235030830390    3.62731521971288
H         6.21305943905062    6.97766057906811    3.48563603849359
H         4.83091415307534    7.67646201996585    4.34541888948224
C         4.71005993151795    5.55617243597587    4.18048956348888
C         5.32197854068333    4.86146010748064    5.21333751103815
H         6.21892685884876    5.24283263722104    5.68257117970319
C         4.76746319493049    3.66534136250504    5.64996117129554
H         5.24223846242654    3.12794310461346    6.45814760047289
C         3.61753647746445    3.14330985864627    5.07216397093294
H         3.20897246012681    2.20920869446305    5.43366170406550
C         3.01076908511706    3.82792638263668    4.02951729977981
C         3.56350543800800    5.02808663396686    3.59960805520931
C         1.80485584328638    3.37619194717106    3.23416801776414
H         1.00837674191050    2.97428174928089    3.87655714832248
H         2.11923262892652    2.57422840532767    2.55619708409810
C         5.22615419712944    6.68582158268604    1.21399978867091
H         4.64346166937445    6.78636057680272    0.29240528816213
H         5.48028043716066    5.63191736522222    1.36640760169321
H         6.15492549346577    7.26731284542431    1.11637696767388
C         4.11864932213920    8.58177921455049    2.16716900756408
H         5.03357132649850    9.18920500756300    2.12552752187411
H         3.49306897521628    8.92705958391162    2.99283924750509
H         3.55803339513549    8.70730431891860    1.23909887782113
C         0.74376496490229    4.04441504320654    1.13810071569223
H        -0.11052494416327    3.36758380269121    1.27914635697415
H         1.52469861457394    3.52820081284417    0.57594287774337
H         0.42551757628956    4.91367334978244    0.55980603646709
C         0.25009396230963    5.23604198935461    3.15458845793196
H        -0.03845507110415    6.12278839757403    2.58069494641962
H         0.64755027324146    5.54896321416885    4.12548106430569
H        -0.63913654010986    4.60903941939731    3.31724052781478

