65
CSD_code = FULZOD | q = 0 | S = 0 | Stoichiometry = C26H30N4O2S2Zn | MND = 4
Zn        8.93376645631592   -0.38514523209265    8.13174921564275
O         9.40280822132444   -2.23642901386849    7.88517970954115
O        10.63439607285511    0.41685432718475    8.76419217712958
S         8.91628695397529    0.36096335894405    5.86903397349547
S         7.50068671362416    0.67719677815761    9.65620239975711
N        10.59329954207425   -1.71249362831321    5.99932570828779
N        11.52367705856322    0.26983724795040    5.40435199940636
N         9.58846906057555    2.34038339243128    9.40782009414476
N         7.61128413842220    3.12157357246727    8.61203809978418
C         9.98191195058125   -2.54623856503572    6.80442606460061
C        10.07783403024785   -3.97535154714768    6.43458455038279
C         9.50362783348267   -4.93439782197359    7.26512344553014
H         9.00904252563307   -4.60946280060930    8.16777862643047
C         9.57180994523578   -6.27280537342555    6.92822618352986
H         9.12550445835501   -7.01477957651655    7.57382534958283
C        10.21051690590408   -6.66270495143445    5.76187838703985
H        10.26232960107365   -7.70911950221873    5.49852662405652
C        10.78232405274228   -5.71116297863194    4.93109621561169
H        11.27788919176126   -6.01776442601755    4.02154478694408
C        10.71878853807638   -4.37166425361480    5.26328325903481
H        11.15657062293763   -3.61920266822824    4.62556718054678
C        10.46364010254456   -0.42100539433065    5.82151891343095
C        12.86002715035808   -0.25763384960542    5.58175805503246
H        13.42654693589872   -0.07605503033289    4.66199049722949
H        12.78867178528843   -1.33137681437892    5.75727152457716
C        13.51821276359359    0.45476355006754    6.76358725320604
H        14.52587682043993    0.06632414630835    6.91562795812932
H        12.92891208538475    0.25327446636113    7.65928176369890
C        13.55408782385455    1.96016007135231    6.51008070769027
H        14.19374885032791    2.17093031504697    5.64877405792197
H        13.97368259201768    2.47271971581178    7.37772437762962
C        12.14334925451318    2.47607947418212    6.23532691757484
H        11.53390952722656    2.36213636314161    7.13307173423552
H        12.16474788589500    3.53444536680035    5.97169592043565
C        11.50455047437333    1.67931853446587    5.09602503187750
H        10.47409581528362    1.99245368414233    4.92602090318667
H        12.07457592334926    1.82589454182184    4.17202410818965
C         8.32165583013881    2.12942706283176    9.13707942472073
C         8.26684700944017    4.27049980881566    8.02310972106900
H         9.30407873321001    4.28768001181595    8.35839229611645
H         7.75698013025149    5.17325661640888    8.37594330123253
C         8.17822728968225    4.17836154972591    6.49971367449292
H         8.69443793747432    3.27495681257511    6.16938071432150
H         8.66867483912742    5.04304677388953    6.05092933657505
C         6.71489098084302    4.10111305549377    6.07354170179539
H         6.64832534138263    3.98816720076928    4.99095647717861
H         6.20183744679404    5.02570050179240    6.35083842817103
C         6.04648878238597    2.91455397453153    6.76176618264214
H         6.51555996048652    1.98906923176243    6.42039779225182
H         4.98560560676688    2.87235248509478    6.51460601545697
C         6.20946937164796    3.02695727412100    8.27873789719833
H         5.71439447293447    3.93264524400571    8.64495049027894
H         5.78141243257911    2.16092784194167    8.78309804431191
C        10.59719415055398    1.50112409724988    9.41084902750464
C        11.81062449176744    1.95156069415282   10.12661159036936
C        12.82878474638054    1.03680993476363   10.38176432111668
H        12.69869065900254    0.01006642390430   10.07385153766782
C        13.97644652533975    1.44133714933724   11.03667962752085
H        14.76293087678143    0.72850802069371   11.23581530091756
C        14.11575957820070    2.75945143532778   11.44014540442328
H        15.01397448877439    3.07578624302737   11.95000969568977
C        13.10109250826689    3.67204580861404   11.19518614200883
H        13.20992118674676    4.69779749089964   11.51556331808394
C        11.95073394974895    3.27273076040102   10.54241253232578
H        11.15190100917188    3.97095101717337   10.34663623003352

