82
CSD_code = FUMDAS | q = 0 | S = 0 | Stoichiometry = C25H42B10O2P2Ru | MND = 8
Ru        2.33807620944217    1.32590624767197    2.52194861763096
P         2.90790012941252    3.16822183071472    3.79993802889090
P         1.22178968070036    2.56680961914350    0.87773568714911
O         4.49038956361916    0.60513504753829    1.20014825752049
C         5.87516034844010    0.67980226188791    1.46734231848012
C         6.63144931228765    0.90884809450163    0.16469398620029
O        -0.20688403290920    1.33495541768127    4.08314044697179
C        -1.39015658528765    0.90209598478105    4.71672017380330
C        -2.32141789568269    2.08639734620706    4.94419842230807
C         3.22270960837581    2.98098623832131    5.59564217558277
C         2.32622237500214    3.39967151668918    6.57085716885814
C         2.58183735675054    3.14623524505816    7.90756888255332
C         3.72822788304349    2.46805145226354    8.28375359831057
C         4.62165129645855    2.03652416169707    7.31567163903194
C         4.36703572686845    2.28571360584964    5.98189768144553
C         4.49610392957527    3.93063240660050    3.27622849329970
C         5.32874315810528    4.65586137753394    4.12435518521361
C         6.48578432563043    5.23568601272911    3.63541701208108
C         6.81898776779194    5.11068173167126    2.29612562069821
C         5.99473972712710    4.39354329535522    1.44493956186641
C         4.84443624395464    3.80203439672275    1.93594189941618
C         1.85282324406972    4.67880153476286    3.84002364303372
C         2.32229922991222    5.98051619591973    3.70459954641281
C         1.43757446326078    7.04598791672916    3.73186011953129
C         0.08128150622018    6.82722722179525    3.90113553139853
C        -0.39400033477852    5.53208267900807    4.03632445088742
C         0.48495319033507    4.46533375061762    3.99762525608873
C         1.23706650168379    1.77813141676659   -0.78982599618267
C        -0.59306830488330    2.83246534909209    1.06174257706973
C         1.67984746171038    4.28658966834284    0.34339638754709
B         3.61442119996952   -0.18824696874530    1.90787048275472
B         0.78712451473424    0.52015938357523    3.62675785932670
B         3.65774633908761   -0.46420923156941    3.63999365916162
B         2.22791339024304   -0.13606133486916    4.47076421378142
B         0.76388206598831   -0.54158014896459    2.16158834573500
B         2.17400689926914   -0.87179718398022    1.29212465796061
B         3.35306778412832   -1.79125536078920    2.40560643057330
B         0.89523266601228   -1.20719557990622    3.83256479078851
B         2.54791831163538   -1.81530676791961    3.97559027651351
B         1.61991444410728   -2.08001227490052    2.47605730757775
H         6.07280006080621    1.50528763876065    2.16585829710412
H         6.21111491582651   -0.25324274374174    1.93585123290390
H         7.69679760679503    0.99249459470892    0.36292569651756
H         6.28736371767002    1.82306853141632   -0.31259156355150
H         6.46019158544719    0.07877372701953   -0.51655716710110
H        -1.88500788870064    0.14734841327943    4.09030098329498
H        -1.13573863331168    0.43243925544009    5.67644399367631
H        -3.24300417021836    1.74739543496262    5.41016696176289
H        -2.55965973941699    2.56249678904349    3.99591083564312
H        -1.84734464069463    2.81854469626051    5.59321968619880
H         1.42721550139565    3.92686030590341    6.28708985593366
H         1.88010777246986    3.47840286526431    8.65933399796435
H         3.92299543099765    2.27010385258936    9.32753617817288
H         5.51289843489046    1.49855047931344    7.60363432726657
H         5.05337351367488    1.93651017785554    5.22291078867798
H         5.06859089284695    4.76584381827896    5.16779096478682
H         7.12825976575841    5.79388817434748    4.30111182956507
H         7.72016911521759    5.57036770742738    1.91775391543918
H         6.25445015608633    4.29605508913790    0.40049862773434
H         4.20004411606135    3.21823314414589    1.28421105488875
H         3.37735161523182    6.17078391239721    3.57142922466983
H         1.81220687969359    8.05360161086340    3.62143880033464
H        -0.60291174507525    7.66279108959059    3.92459295258614
H        -1.45266787500584    5.35742987757485    4.16851780497367
H         0.13450099343245    3.44612924416874    4.08238120467548
H         0.77355025639643    2.42327588519103   -1.53540480630805
H         0.70206576324014    0.83367633001437   -0.73366475646932
H         2.26598131937415    1.57010245851630   -1.07783593291308
H        -0.76714371152750    3.60697175043299    1.80386810968369
H        -1.04987940886631    1.90899994538920    1.40486956890532
H        -1.03561371373266    3.13100404857621    0.11242346055557
H         1.74758401136883    4.94470368692157    1.20748156206819
H         0.93008382899352    4.67710788389036   -0.34337826651066
H         2.64433527321944    4.27513975730765   -0.16048574125506
H         4.71934733062314   -0.29108472505995    4.14939653511282
H         2.24734514800351    0.28538072197770    5.57992227580558
H        -0.26707771909017   -0.38832347870583    1.59170735661499
H         2.15299391121044   -1.02648113569464    0.11539307366898
H         4.15128319584590   -2.58402707360695    2.03994704423744
H         0.00795538106342   -1.65894533114752    4.47308193123117
H         2.80451424747832   -2.64660091748361    4.77417875709928
H         1.15288680310951   -3.10718104811487    2.12747494709311

