73
CSD_code = FUMJUU | q = 0 | S = 0 | Stoichiometry = C28H28N2NiO14 | MND = 6
C        -5.78450443499798    6.48694272590440    9.98801070239294
C        -4.98768814201900    5.25001475349903    9.70372379194999
C        -3.73483341001756    5.36736485393929    9.11331336909007
H        -3.34591041090787    6.34214898581272    8.86816865290817
C        -3.00785574545013    4.21607008105231    8.84779281740621
C        -3.52275385978154    2.95721904037897    9.15851567405073
H        -2.91358408163342    2.09826443839715    8.92605207624512
C        -4.77829981551337    2.84421247416426    9.74239631323075
C        -5.50638156136897    4.00411034855711   10.01662312995459
H        -6.48386473116444    3.92442573926291   10.46508385171467
C        -1.66574299937121    4.27155468001253    8.22472658175170
C        -4.70482202396369    0.46648487072999    9.81284782884282
H        -3.75011837115193    0.42402456492000   10.35741139503109
H        -4.48651241509475    0.36486395718925    8.74147353185054
C        -5.55494275651598   -0.70055524320003   10.24327163791478
C        -6.71561133167276   -0.53680509103104   10.98929242442848
H        -7.04087555506629    0.45166896178637   11.26808314001964
C        -7.43084059013852   -1.66637717515239   11.35142391557240
H        -8.33874112302295   -1.57556941352687   11.93021750186086
C        -6.96320059240288   -2.91086752564476   10.96098571540621
H        -7.49001242245729   -3.81480555356345   11.22359059011966
C        -5.79374452867938   -2.96293308198131   10.21772061922824
H        -5.38223962678559   -3.90615055948725    9.88287202012264
N        -5.10726429838087   -1.89136520833016    9.86597474688440
Ni       -8.04128682164840    7.64210669089547   11.10995024813624
O        -6.80138609437671    6.33628417495232   10.72360000238012
O        -5.41901231773553    7.57897075700918    9.51342723753183
O        -8.09165690310615    6.84589200119763   13.20299462490714
H        -9.04811066909254    7.00412519418620   13.33403708229300
H        -7.99160976308440    5.90131655361498   13.03985199077807
O        -9.68539949421688    6.08732105265286   10.79129570176926
H       -10.27760932669400    6.48337548578771   11.46972196679887
O        -1.24621615922998    5.51874675612562    7.97082965785369
H        -0.36716796735234    5.49160218430289    7.56194580276647
O        -0.99302524132454    3.30499472822960    7.96244841779628
O        -5.37801248628031    1.67732898474993   10.08126362100405
H       -10.06160609981859    6.27974810832167    9.92795699503510
C       -10.29733371026404    8.79756433995800   12.23336370602622
C       -11.09434982832760   10.03448332612282   12.51730413694447
C       -12.34730314096887    9.91725344569472   13.10755676091813
H       -12.73627550358537    8.94251011212146   13.35281945039491
C       -13.07424585119354   11.06863125385326   13.37286062014505
C       -12.55928494886498   12.32739544971561   13.06190350861358
H       -13.16860722949070   13.18637942771214   13.29385352945137
C       -11.30358352748178   12.44029123092140   12.47836184720743
C       -10.57547029216873   11.28033244015879   12.20447769739610
H        -9.59778604262590   11.35991115661635   11.75643839470001
C       -14.41645227359388   11.01357950539507   13.99571446136334
C       -11.37721022275307   14.81796975056211   12.40792365047458
H       -12.33199085096035   14.86041167252769   11.86349445847534
H       -11.59539015154943   14.91946860823084   13.47933897284648
C       -10.52723376469539   15.98506852905103   11.97741329405555
C        -9.36648616564907   15.82125425065603   11.23151195685697
H        -9.04119722649179   14.83272565492084   10.95294499152430
C        -8.65129994774188   16.95079358683626   10.86923362723270
H        -7.74334377939225   16.85993906115548   10.29053802584117
C        -9.11906668905262   18.19532078714093   11.25942083876129
H        -8.59228397402043   19.09924378949747   10.99671061459598
C       -10.28859886418097   18.24745007440723   12.00255172971814
H       -10.70020612641627   19.19070668993080   12.33715183585021
N       -10.97505943119572   17.17590088313830   12.35443617559199
O        -9.28093541461768    8.94804660729812   11.49710585508358
O       -10.66348148220539    7.70536419144774   12.70708666429846
O        -7.99049294575687    8.43797983318119    9.01696480660950
H        -7.03386635013684    8.27953769105645    8.88688356723557
H        -8.09048085700464    9.38265702794161    9.17957585865741
O        -6.39702618022734    9.19675457223105   11.42978588576525
H        -5.80469685850090    8.80139713530842   10.75106923962724
O       -14.83620070044199    9.76663026910496   14.25037345603269
H       -15.71510525788149    9.79431610399032   14.65954230590190
O       -15.08881447099824   11.98042701958510   14.25791509361939
O       -10.70395965887840   13.60718589580277   12.13936950379172
H        -6.02073610916106    9.00366433100310   12.29290810137166

