113
CSD_code = FUMJOM | q = 0 | S = 0 | Stoichiometry = C58H50O3SiTi | MND = 4
Ti        5.70447790019895    4.28789595812704    4.74687625526454
Si        7.17064130153932    5.85222722929463    7.40040511265477
O         4.21962841807880    3.42410931067166    4.65519018350371
O         5.91810350361738    5.69575017493668    3.76307749775309
O         6.96189805635428    3.12782634961438    4.93025175131715
C         3.10236172424673    2.72765783945315    4.79500876611746
C         2.94290477913111    1.50452925963779    4.11120236766587
C         1.77322016822567    0.77289277449562    4.24373607242253
C         0.75042271480592    1.21670719954797    5.06259697689979
C         0.90420028476807    2.40254487749770    5.75522933789968
C         2.05606236162475    3.17079122223266    5.63304179273111
C         6.07889381755388    6.43463802815249    2.67678605226983
C         4.96709264485768    6.71754747276310    1.85137638632201
C         5.11130452441611    7.49729182537795    0.71282228933172
C         6.34659175355624    8.00038882983581    0.35194327557481
C         7.43419482410346    7.75853653818990    1.16687568016827
C         7.32831404312188    7.00839454456872    2.33523336886873
C         7.68235697103446    2.02536592123046    4.82652996253530
C         7.82867052190706    1.15600242013702    5.93176717533620
C         8.66035355206686    0.04818816637008    5.82538586943732
C         9.35263921770825   -0.22042540547780    4.65851355289630
C         9.21328192626501    0.62426614163359    3.57293840017132
C         8.38410062903551    1.73725105709225    3.63296674166153
C         5.58947832171902    5.18579751572740    6.62614136696424
C         7.64604550370708    7.46203196154013    6.46856459591272
C         6.88732981454427    6.32643504184164    9.24369836218184
C         8.62515190129305    4.60605933782336    7.41418312200915
C         4.02556646179380    0.97775874190075    3.24326022898678
C         3.98456537960373    1.15756438998775    1.86335235511520
C         4.96925191701719    0.61634884907147    1.05503494897643
C         5.99840727968661   -0.12306536121344    1.61305356349408
C         6.03658716687702   -0.32360441048767    2.98228066663078
C         5.06020972871702    0.22754749999202    3.79402754074338
C         2.14905914820587    4.43782998847600    6.38070969748776
C         1.82166518090796    4.47228997569716    7.73549877192625
C         1.83886843134692    5.66402020300963    8.43517360843827
C         2.16465318893698    6.84548101601945    7.78957124391740
C         2.49110121756851    6.82275337335209    6.44436946747582
C         2.49831552159330    5.62695772295676    5.74528703214326
C         3.61361302146507    6.21207870979498    2.16700041268225
C         2.57636556240691    7.12641928251057    2.34703521180047
C         1.27962005569430    6.69312241529872    2.55336965616993
C         0.99610400396202    5.33736737889202    2.56350239880870
C         2.01719425899340    4.42053999734126    2.37877379637334
C         3.32297988262593    4.84969523864030    2.19496282787993
C         8.54071350651993    6.84977670408523    3.15738074678379
C         9.42122086430504    7.92428700585735    3.30018098527163
C        10.60824429150671    7.78163859300560    3.99199969937714
C        10.95064411187187    6.55809119157537    4.54370994203648
C        10.07597167772969    5.49194297381171    4.42883684104455
C         8.87297135761053    5.64038885798443    3.76211553237355
C         7.11713634705538    1.42625606693580    7.19354760562355
C         7.78217382336084    1.30402006125100    8.41296055025840
C         7.12310253389432    1.54546534952881    9.60362386462035
C         5.78574982354345    1.90625537100780    9.59965369770178
C         5.11209528932390    2.02140463758123    8.39570576037990
C         5.77142232831247    1.78891242054787    7.20069705257243
C         8.24790736974894    2.61897497043050    2.46108165868173
C         6.99388969090418    3.07258381417498    2.04340608396954
C         6.88550197355561    3.89563681022483    0.93421177414733
C         8.01812993794391    4.29930672947908    0.24625196154713
C         9.26420229784768    3.85828280645297    0.65729402948350
C         9.37795121762329    3.01764350923826    1.74848954750629
H         1.67541844595098   -0.15497154474301    3.69800774925971
H        -0.15787477704023    0.64190696171150    5.15940436970777
H         0.10785506898780    2.76236515177080    6.39091008067234
H         4.24212972556971    7.68776536131235    0.09894959032173
H         6.45798610830532    8.58164809432361   -0.55076673539716
H         8.40306636372419    8.14539435572340    0.88724873690334
H         8.74872833940583   -0.62026077542076    6.66969715645381
H         9.99177367391050   -1.08812425958051    4.59367333452112
H         9.73330348040958    0.41035594041595    2.65037190422308
H         3.17083970983340    1.71427905548491    1.42023547193075
H         4.92920734181974    0.76725368671142   -0.01402184846362
H         6.76362247010788   -0.54891854790440    0.98149640670948
H         6.82379986547383   -0.91662892113539    3.42270777244870
H         5.08178107868949    0.04614590237404    4.85967011724944
H         1.55782492421180    3.55407292565555    8.24173570862157
H         1.59038988708047    5.67389508105247    9.48658331058774
H         2.16483610767067    7.77829205182412    8.33378776602201
H         2.74378218776576    7.74027566967868    5.93144104049760
H         2.75098851495152    5.62083495445185    4.69443481490144
H         2.79894165792230    8.18385363568956    2.32447730273186
H         0.48738167173982    7.41297426136234    2.69793969323692
H        -0.01657429647252    4.99409188197088    2.71272039102241
H         1.78753328112375    3.36518343018847    2.37774268561591
H         4.11323805971714    4.12581047625168    2.02765324773496
H         9.16341383688643    8.88574206488842    2.88051427409947
H        11.27309037073232    8.62721659678077    4.09612645112776
H        11.88877919749900    6.44107418284497    5.06624461499944
H        10.33339813013627    4.53294011557133    4.85418420644958
H         8.19314428346033    4.80225038813908    3.68898513348850
H         8.82865401219104    1.03490034897696    8.42245385635984
H         7.65482444630407    1.45345224421120   10.53980227741870
H         5.27179678982852    2.09342318441586   10.53088287876404
H         4.06440323418885    2.28813311253977    8.38259994406651
H         5.22736346876610    1.86408639008001    6.26682754762208
H         6.10112090091091    2.73409474182038    2.56690629096344
H         5.91396392816276    4.22164009026325    0.58985346952442
H         7.92565396970715    4.95460112331367   -0.60668682912299
H        10.15086605071833    4.16987683668715    0.12500971078983
H        10.35299335249739    2.68305525218560    2.07119810886684
H         4.91159882661764    6.03486272091787    6.48689539722155
H         5.09396883075308    4.48466966318474    7.30492811679775
H         7.25510260668231    8.33947774042064    6.97466514635014
H         7.23138236159729    7.44863127511795    5.46311569219049
H         8.72013435166249    7.58849902656483    6.37841774651098
H         6.07519445007472    7.03906048213773    9.35017693022126
H         7.77454627323819    6.77268708985780    9.68154700169196
H         6.63398934318021    5.45222523188560    9.83603363455207
H         8.62325555303519    4.00447530269062    6.51048516001150
H         8.54801561573296    3.93021707725406    8.26041855914836
H         9.58448989497187    5.11043841132181    7.48046153411273

