45
CSD_code = FUMKIH | q = 0 | S = 0 | Stoichiometry = C18H18Br2N4NiS2 | MND = 6
Ni        0.00000098025338    0.00000031130573    0.03181120579340
Br        1.41555348355087    0.73149328309031   -1.54302798356929
C         1.28017812621860    2.61590515319561    1.39419959964029
S         1.43599841171121    0.83541408795015    1.73908077203300
C         0.32623896842643    0.68344094974915    3.18820854749305
N        -0.61521667629175    4.21240479199566    1.02017181012752
C        -0.09132855543502    2.95690131484056    0.93658865756624
N        -0.92348135501737    2.09970307338887    0.41288746648253
C        -2.06325235934327    2.80409986421106    0.10227707361383
C        -3.25268114675543    2.38270650473152   -0.47948012940508
C        -4.23180080491794    3.33568679795178   -0.66421609421044
C        -4.04688210878153    4.66696076921874   -0.28458221787891
C        -2.87015865243092    5.10180014110912    0.29292609984071
C        -1.88061073844329    4.15171560309718    0.47910938049228
H         2.00305471016177    2.79929853443664    0.59304172256596
H         1.56863132228400    3.17618429150563    2.28595721762285
H        -0.42935901450541    1.46735287229696    3.12201079842094
H         0.92552094359561    0.82476284816184    4.09074878944312
H        -0.13781953684899    5.04111979151395    1.33286195640569
H        -3.38304085721021    1.35745622455713   -0.78505039176985
H        -5.16786859474767    3.04931548502249   -1.11870515267627
H        -4.84354749320143    5.37648908136026   -0.45121583774703
H        -2.72618809475481    6.13272128044150    0.58005192517817
Br       -1.41555378531732   -0.73149376132880   -1.54302672807323
S        -1.43599774702090   -0.83541472755116    1.73908045160955
N         0.92348151717716   -2.09970303747387    0.41288813838973
C        -0.32623898935385   -0.68344001410811    3.18820856053021
C        -1.28017834320094   -2.61590575035583    1.39419932101418
C         0.09132856085300   -2.95690149039387    0.93658886381556
C         2.06325237640872   -2.80409985442010    0.10227731457927
H         0.42935866299935   -1.46735222631267    3.12201107482388
H        -0.92552136657492   -0.82476191912660    4.09074853462737
H        -2.00305490788901   -2.79929930847418    0.59304142530334
H        -1.56863144383233   -3.17618441108793    2.28595726147678
N         0.61521672628997   -4.21240491851449    1.02017190829737
C         3.25268115347755   -2.38270644060720   -0.47947991272522
C         1.88061073892167   -4.15171566227641    0.47910944235849
H         0.13781953508552   -5.04111999671723    1.33286180783054
C         4.23180079222974   -3.33568670400637   -0.66421607161124
H         3.38304102038839   -1.35745604058095   -0.78504970369114
C         2.87015858979446   -5.10180020882126    0.29292577632361
C         4.04688202816859   -4.66696076318271   -0.28458250640044
H         5.16786857945368   -3.04931532636179   -1.11870510295048
H         2.72618799673051   -6.13272141380887    0.58005137090378
H         4.84354734769426   -5.37648907962148   -0.45121644189416

