76
CSD_code = FUMKED | q = 0 | S = 0 | Stoichiometry = C38H31ClOP2RuS2 | MND = 6
H         5.46687042814263    3.83315384485586    6.47168117726762
H         0.35751686481516    8.05394126189817    1.39657913505085
H         1.52041061195627    9.74441904968768    0.04643840634355
H         3.98382788503496    9.85181431402373    0.04015069653570
H         5.29014857455749    8.25704857742063    1.39810607666028
H         4.13544961079974    6.56335746707644    2.76075568804165
H         0.03357201491899    3.40654798273320    3.15320283106572
H         0.45584853423140    1.23149875504874    2.08729192361234
H         2.39522094159283    0.94519839661606    0.58463350470653
H         3.89548731809593    2.85334774934613    0.14299094896748
H         3.48536530833321    5.02183523080864    1.20297076203323
H        -0.84879220911726    6.45781340862624    4.89691950953506
H        -3.28619942925066    6.60854251703970    4.49549331063117
H        -4.17734602221748    6.25854245795832    2.21473899604850
H        -2.64036401544156    5.75574419810699    0.35554194229489
H        -0.21128807362003    5.60129844862804    0.76327808648840
H         3.04169044710687    9.17361100891754    7.28274801115851
H         4.39560261852648    9.63006190731816    9.27542901430868
H         4.07752804303371    8.29404505184488   11.32888436117003
H         2.37385399976573    6.50773027751211   11.37510504947515
H         1.01338365221176    6.04701332093169    9.39660311441609
H         0.36762084457135    9.74270557752916    7.97345657499431
H        -0.10951814112946   11.98791983717040    7.08100009180138
H        -0.07726564243049   12.38897325032793    4.64880119635075
H         0.42099613899660   10.52817609825573    3.09815726489087
H         0.89672821394745    8.27689093773506    3.99754436327555
H        -1.69145155565635    8.50676353081917    6.95412007448255
H        -3.81003894192049    7.67717655012702    7.86701048627800
H        -3.96805853497610    5.38561846287468    8.76632608681508
H        -1.98419704801898    3.91431676345491    8.73455035021762
H         0.14369611580097    4.73852445884283    7.80295653558177
Ru        2.14778120275823    5.64271175675513    5.36843041917204
Cl        3.54899928283441    7.52941942261002    5.26694887848404
S         4.05976526045455    4.26035761475274    4.57790143670299
S         3.50473777852157    4.90503076084704    7.33801013517511
P         1.39990238247525    5.90202166738673    3.18884124503361
P         1.00267722301837    7.19959152253367    6.66895533952652
O         0.48279204069009    3.18830810874774    5.69792934247271
C         4.51409443597909    4.25896315488154    6.18081957545541
C         1.08337236328359    4.15904592666356    5.56011363127779
C         2.17232904778703    7.17031044870398    2.13595500106522
C         1.43838190884048    8.08332983885255    1.38547053057887
C         2.09434254352920    9.03898975814148    0.63034033621485
C         3.47794385983910    9.09904996249489    0.62671290558824
C         4.21168913769728    8.20237328796737    1.38588378750364
C         3.56432900680158    7.24335033214897    2.14195329068890
C         1.73931554416441    4.35877102773725    2.26536816312380
C         0.88653249343391    3.28041890375563    2.49979099449190
C         1.12044751372161    2.06097605716574    1.89554744509831
C         2.20754878823257    1.90112544308056    1.05071813467935
C         3.05004451952118    2.97065169809948    0.80501653176689
C         2.82105671946099    4.19565953371351    1.40790112689066
C        -0.38450537125845    6.04410617743835    2.85609143226677
C        -1.25498344272465    6.31934905529727    3.90086003955415
C        -2.61729987135609    6.39884631581741    3.67380433644664
C        -3.11442041343695    6.20048161550391    2.39666428655187
C        -2.24955415567613    5.91758090820721    1.34950287203375
C        -0.88849015964016    5.83512275124542    1.57388844433329
C         1.92923352830220    7.58087297143734    8.19916477881571
C         2.88642695882749    8.59408461007821    8.18117399565801
C         3.65140961359941    8.84756289263884    9.30389987961636
C         3.47296607367208    8.09881468389840   10.45529708828324
C         2.51890115015012    7.09638704335947   10.48094461674647
C         1.75129947048466    6.83436222561987    9.36041967868549
C         0.65609730228849    8.86693560329222    6.03221810610373
C         0.37187919476573    9.91566518121440    6.90550014820158
C         0.10562342158587   11.17524923378385    6.40234089405342
C         0.12138377587163   11.39972666980963    5.03412502300842
C         0.39846003429758   10.35838898542378    4.16452073116692
C         0.66008527647625    9.09650245285648    4.66499887692006
C        -0.62017727296508    6.68698698543525    7.34696748447803
C        -1.74450932570740    7.50493834923943    7.35505069290725
C        -2.94178562127994    7.03394777039617    7.86552797771835
C        -3.03133502271707    5.74759738099048    8.36921520324867
C        -1.91836641128417    4.92240073723802    8.35292366130844
C        -0.72332033774226    5.38710247956355    7.83782593056159

