24
CSD_code = FUMPOS | q = 0 | S = 0 | Stoichiometry = C11H8FeO4 | MND = 7
Fe        6.59744878163477   -2.72805578322897    6.19840082454528
O         5.48524697578701   -2.09449077946015    8.84425200827758
O         7.34384281105204   -5.47694645409952    6.75636185871733
O         9.41210241204674   -2.13057245715998    6.65030730677580
O         4.96582950511422    0.89404065893380    6.54479246890461
C         5.89975141988470   -2.31644814998466    7.80670435257981
C         7.03780003817451   -4.40361969845498    6.50047657880868
C         8.31349665193650   -2.35015760939221    6.42061001853860
C         4.87791403639066   -0.16557608572628    5.94982191757713
C         6.08063328582719   -0.74151356942004    5.31678689747918
C         6.20390285592867   -1.70564207678829    4.26811150404228
C         5.54515946479876   -2.93759137119053    4.30603148810203
C         4.63525597234992   -3.21313156733380    5.38312969097824
C         3.45279323089948   -2.33963828496110    5.63698458471423
C         3.56527680180346   -0.85231804330039    5.87584853817249
C         3.00051107743982   -1.37439742274129    4.58177853961259
H         6.85013941163587    0.03161799932876    5.28834758712865
H         6.92830691419750   -1.51873909871246    3.48003923427271
H         5.76292657844806   -3.68770455574598    3.55215233351949
H         4.33540046596908   -4.26052870368331    5.43844267473348
H         2.67875012453987   -2.83387562051813    6.21240012184438
H         2.85442593271589   -0.40749371000163    6.56379557854412
H         1.94283516523931   -1.24329273115921    4.40994855368467
H         3.60615008618597   -1.27752488519967    3.69307533844659

