60
CSD_code = FUMROV | q = 0 | S = 0 | Stoichiometry = C27H28N4Pd | MND = 4
Pd        5.33430396535792    5.24902028065991    2.83301805441677
C         6.93665922092732    5.53740261522832    1.57368694223651
N         6.33067917821553    3.90720791300416    3.91264343345312
C         6.98552524562163    4.45474506771880    4.89564802061436
C         6.67020982530525    5.68736155193227    5.50292572024929
C         7.59678837889206    6.38033289728512    6.30563093386321
C         6.99846085928209    7.51648059495493    6.83565291136782
C         5.67279996731591    7.53676704247990    6.42942303266587
C         5.41651670825917    6.42928783129121    5.59282036131028
C         4.10641805002806    6.10481854474638    5.18412689826798
N         3.79635889153528    5.12565435584115    4.38251121466722
C         6.53249910681354    2.61066439068628    3.48359312051109
C         7.12082601921264    1.61453731533585    4.27169442159134
C         7.25960845761489    0.32941492803149    3.78439103576667
C         6.80959604561032    0.00084535720091    2.51657767317466
C         6.20089438539417    0.97206369104621    1.73564081692208
C         6.05619780053358    2.25760548443616    2.21234606442456
C         2.50495717537775    4.77861819850525    4.05459211851573
C         1.36174465010093    5.11096935907846    4.79057756306323
C         0.11470010552390    4.70934723572453    4.35254456855226
C        -0.02442068754968    3.96675660535891    3.19156624997231
C         1.10480805856404    3.60051861550355    2.47264421519100
C         2.35345723586017    3.99267661703816    2.90237665945520
N         4.32840603362148    6.66202681317652    1.87950989107571
C         4.33105874251382    7.87944238505476    2.42821537515496
C         3.45411814942619    8.87443941922609    2.06512213122745
C         2.48796078284452    8.63621355482129    1.06779860121451
C         2.52265188654964    7.35597218858398    0.48300882387498
C         3.44005891728463    6.42636800592495    0.91354493036935
N         1.58952305990018    9.57882283389931    0.69020970698050
C         1.60304687860249   10.88665189580838    1.30020419920678
C         0.59787830366459    9.27922371009254   -0.31466535704905
H         7.70319722268705    4.76146296684188    1.67420460698793
H         7.38848362465139    6.50017614865536    1.85624011234109
H         6.64380017959455    5.59376482216164    0.51796333687381
H         0.83170225509158   11.50567263946773    0.84980077241008
H         2.56711237427790   11.37999795993878    1.14830350664384
H         1.40686851195847   10.82337348953888    2.37470806228653
H        -0.05759547234525   10.13609560506588   -0.44568664449600
H         1.06678670390265    9.05693307938449   -1.27803695606560
H        -0.01484753273077    8.42363167937344   -0.01698026069984
H         7.86948267380133    3.94904027369834    5.29747111820839
H         8.61987697103514    6.08026053658913    6.45128308590456
H         7.47673624401941    8.24490640857885    7.46580416512205
H         4.93683683882869    8.27155608225705    6.70953585649552
H         3.31925501220947    6.74841048945046    5.59990713044745
H         7.45029890832503    1.84038627665117    5.27507712491188
H         7.71764780424133   -0.42685199752281    4.40547953858815
H         6.92059034118484   -1.00655066583464    2.14468227538662
H         5.83496063646694    0.71937384538734    0.75081086786931
H         5.58014821053702    3.03281029050645    1.60242151481502
H         1.44884759741026    5.66860405227903    5.71174870760829
H        -0.76101762925237    4.97520762963338    4.92802286543996
H        -1.00465578785177    3.66035467683751    2.85793268538519
H         1.00371912608547    3.00026926139799    1.57946356578776
H         3.26023133916941    3.69429889438432    2.36818312852607
H         5.08022055221405    8.06050704420099    3.19678254086361
H         3.52216779658686    9.82768739421807    2.56055246561674
H         1.84021144434564    7.08088810054559   -0.30233905308264
H         3.47224265555537    5.44277571677891    0.45618354759585

