97
CSD_code = FUMSAI | q = 0 | S = 0 | Stoichiometry = C38H54N4Pd | MND = 4
Pd       -1.07484878992077    8.46600952019434    5.19470888717244
N        -0.33048616064200    9.21276590692122    3.44580683876836
C         0.99111631102789    8.79188150370181    3.01502514626095
C         1.55722133450339    9.50343257669410    1.78086317343929
C         2.95733578777464    8.97869942053986    1.46467560343807
C         3.90192487375011    9.15657992705698    2.64828549349933
C         3.33857665029670    8.45103694201208    3.87746427860594
C         1.94972039922014    8.98876320848152    4.19706023704302
C        -1.15303517881940    9.83173440383310    2.66991129699495
C        -2.42516559541401   10.33821391596303    3.02964809542773
C        -2.95497385751542   10.76454630240951    4.30922558058106
C        -2.31656978018973   10.91549515061737    5.55523272740467
N        -1.18835526835713   10.38485660124912    5.91474516059743
C        -0.58905094886256   10.79358202573667    7.17318024627721
C         0.76706021773568   10.10912309252953    7.35266999623147
C         1.35493629223097   10.44173324698763    8.71925488123078
C         1.55054908476785   11.94985998679299    8.84904338009494
C         0.23348219135982   12.68207392547596    8.60794542023728
C        -0.36639417167954   12.31139306594992    7.25343622890088
C        -4.23736748524873   11.29602633325926    4.05240694773392
C        -4.51730458145033   11.18995840916460    2.70065776144537
C        -3.40325953605731   10.64627589194793    2.06938263659165
H         0.94799010638594    7.71280491594713    2.79189221579480
H         1.59431852687260   10.57913931860410    1.96929585114067
H         0.92202651857412    9.33018219990992    0.90943498365902
H         3.35013286592985    9.50344544989404    0.59114129825519
H         2.89289399329722    7.91696600720491    1.21322917851459
H         4.01925190429609   10.22140566887222    2.86202715320435
H         4.88606016301494    8.75470954151737    2.39975553141445
H         3.99722659574287    8.60031772914305    4.73463221646038
H         3.27769338526382    7.37710110411735    3.68873587098250
H         2.01246112936611   10.05997208214030    4.40770160661787
H         1.53823471152119    8.47343802128827    5.07840116960983
H        -0.89695444343353    9.98135802663334    1.61841531744598
H        -2.82904120390876   11.59375424016835    6.24901491274627
H        -1.24804164824866   10.50101878225298    8.01099177928882
H         1.44212220127898   10.47714745680410    6.57762007376073
H         0.66010592147915    9.02378865941699    7.23785137461267
H         2.30906959134961    9.92707904734149    8.84452348146240
H         0.68112553133882   10.08982618940967    9.50425439719234
H         1.93380367779720   12.19626225607132    9.84130018828607
H         2.28750410809220   12.28174514714073    8.11424660541594
H         0.39439790939458   13.76129339048129    8.65264591546285
H        -0.47514922156367   12.41871097509117    9.39747300894690
H         0.30907195729119   12.61069940590616    6.44873743113701
H        -1.30577279543674   12.84933617706322    7.11354343784006
H        -4.88405466632191   11.71907385538756    4.80142186009814
H        -5.42745548665739   11.49566443110312    2.21697581449350
H        -3.30447200441569   10.46020911680065    1.01386086535052
N        -1.81752415957010    7.71872513354882    6.94427990675655
C        -3.13805542554333    8.13987416632315    7.37815807141477
C        -3.70168648888443    7.42790505161486    8.61321461987899
C        -5.10087476404646    7.95303759969946    8.93283402420571
C        -6.04826566865908    7.77641451729747    7.75128690255781
C        -5.48723684499021    8.48242813019016    6.52132340353172
C        -4.09938471200663    7.94416853006146    6.19820063965103
C        -0.99320550126240    7.10021562124452    7.71872057054525
C         0.27813393180620    6.59321229949066    7.35687054581746
C         0.80556133136530    6.16547132284642    6.07680528081145
C         0.16535921481640    6.01508044505568    4.83165644066335
N        -0.96225790147396    6.54774893460690    4.47353101919105
C        -1.56385756386541    6.14135245035271    3.21541030885104
C        -2.92021833540493    6.82644655853829    3.04005955737618
C        -3.51102887370423    6.49702722489670    1.67398971063618
C        -3.70728868831695    4.98923522052671    1.54143452853608
C        -2.38988878931811    4.25619727292523    1.77815599048491
C        -1.78700106958366    4.62378007250012    3.13219330563544
C         2.08778692858715    5.63288723361557    6.33196753262724
C         2.37008289393463    5.73988700448828    7.68316843926448
C         1.25753165792381    6.28496053192661    8.31580742048292
H        -3.09403933578944    9.21877163198688    7.60184181366188
H        -3.73956111006733    6.35232211042158    8.42426392307753
H        -3.06449246087185    7.60046070748528    9.48331520546648
H        -5.49194496423091    7.42780054177774    9.80684524523947
H        -5.03542125406345    9.01455774968313    9.18499093169615
H        -6.16667242446719    6.71178619020893    7.53712136736950
H        -7.03161171528522    8.17868880604629    8.00230508891290
H        -6.14793138295969    8.33410659815256    5.66556234702708
H        -5.42529463693045    9.55621319119363    6.71063428871644
H        -4.16319958833141    6.87315123678075    5.98711491107356
H        -3.68964110526698    8.45970941481566    5.31626666530954
H        -1.24710697432492    6.95111894010824    8.77082777577435
H         0.67587442759400    5.33588605083380    4.13738750103072
H        -0.90638845036134    6.43576270988477    2.37705589826675
H        -3.59375011579756    6.45692002246530    3.81574495352801
H        -2.81267791761779    7.91154661720170    3.15691644317851
H        -4.46524393587710    7.01226593820939    1.55178676328982
H        -2.83871176055255    6.85044477962532    0.88839827249415
H        -4.09270284813122    4.74502827483062    0.54947559191331
H        -4.44277204809066    4.65596544695128    2.27707892190924
H        -2.55114258470880    3.17710927053142    1.73146353448712
H        -1.68288958595081    4.52111879888734    0.98769311093734
H        -2.46076534459624    4.32278025565372    3.93768794526496
H        -0.84746829316219    4.08525759560188    3.26871613474042
H         2.73286265467154    5.20862555513125    5.58224564582012
H         3.28076617707925    5.43377951742202    8.16558415063856
H         1.16058428948793    6.47187617313413    9.37135379308962

