73
CSD_code = FUMXER | q = 0 | S = 0 | Stoichiometry = C30H40N2Pd | MND = 5
Pd       -0.00000001587373    7.49471836780375    1.43815235020812
N         1.42852869722412    7.98685371393269    2.86194941432337
C         1.24885770557685    8.52432992853149    4.04586215324771
C         0.00000000487716    8.77423369884077    4.61236315087331
H         0.00000001027250    9.21784877557584    5.59605562459690
C         2.46395539972055    8.90261120488774    4.86047160445838
H         2.94969108409852    8.00739437887088    5.24620944067293
H         2.18700103279539    9.53275647956734    5.70062217343476
H         3.18999099126394    9.42910091088964    4.24333028342694
C         2.72307623055944    7.78911413856452    2.35475659816590
C         3.28126732217707    8.76643186330854    1.51484440294710
C         4.55290859859402    8.56774231023655    1.00431337288517
H         4.98845946355092    9.31563269777778    0.35637510853988
C         5.26814150240464    7.42325647809266    1.31571951967934
H         6.26237136627208    7.28336878715242    0.91772731078698
C         4.70211981960835    6.45096529083337    2.12098189702261
H         5.25321230208714    5.54774938393804    2.34360260015213
C         3.43078597605151    6.61668862326473    2.64914005328282
C         2.45761273819454    9.97027601790460    1.16265884458431
H         2.88885242705370   10.50527565501958    0.31978975055110
H         2.38479000286655   10.65369088988919    2.00956324401608
H         1.42877316423174    9.65493913419928    0.90973622539542
C         2.78552630137222    5.55247894694390    3.48824845647425
H         1.70162581521285    5.56876363269918    3.33816560225897
H         2.97439793620265    5.72133053914195    4.54899600516498
H         3.17267442735432    4.56923932456046    3.22991725573895
C         0.00000003902892    7.22240464835705   -0.61888318908399
H         0.00000008734793    8.15916562036693   -1.18432007651257
C         1.23746033458691    6.74393057928917   -0.14810258298110
H         2.11252997852219    7.28291867361585   -0.51518084649065
C         1.53145770031078    5.29031658339947    0.15864778989559
H         0.95532239113549    4.94080727704530    1.02346241442567
H         2.58606945368034    5.21052002768224    0.43537832937757
C         1.29131657778119    4.34615587120811   -1.03500236313063
H         2.12458403906159    4.46608807495884   -1.73312693450851
H         1.32058614385687    3.31743678332097   -0.66704579994966
C         0.00000004340426    4.55625245752409   -1.83238717549642
H         0.00000008392430    5.57805601252786   -2.22616570229027
C         0.00000002044811    3.60250893437984   -3.02944470092968
H        -0.00000000622144    2.56709069509650   -2.69423933297707
H         0.88131797491170    3.76164574504546   -3.64672634217902
N        -1.42852869715090    7.98685374390949    2.86194941273168
C        -1.24885770058405    8.52432992805112    4.04586216094775
C        -2.46395539347725    8.90261120258334    4.86047161372184
H        -2.94969106664542    8.00739436890625    5.24620944585037
H        -2.18700102470524    9.53275647490451    5.70062218364850
H        -3.18999099307823    9.42910090475455    4.24333029753984
C        -2.72307622817504    7.78911414772772    2.35475660485956
C        -3.28126734775069    8.76643186086076    1.51484441472474
C        -4.55290862649308    8.56774228059910    1.00431340138137
H        -4.98845951624255    9.31563265652888    0.35637513986549
C        -5.26814149958190    7.42325643176756    1.31571955738584
H        -6.26237136736938    7.28336872088378    0.91772736613580
C        -4.70211978102455    6.45096525008316    2.12098191674336
H        -5.25321224430606    5.54774933514319    2.34360263254888
C        -3.43078593533757    6.61668860930355    2.64914005562051
C        -2.45761279014269    9.97027602904768    1.16265884168950
H        -2.88885249526923   10.50527565559591    0.31978974890801
H        -2.38479006081980   10.65369090529375    2.00956323782904
H        -1.42877321332996    9.65493916408263    0.90973621684093
C        -2.78552621142161    5.55247894274375    3.48824843312905
H        -1.70162572990756    5.56876365073782    3.33816554046863
H        -2.97439780691589    5.72133052701910    4.54899598998601
H        -3.17267432711369    4.56923931418626    3.22991724153001
C        -1.23746031971194    6.74393064562077   -0.14810265872172
H        -2.11252990606693    7.28291882390152   -0.51518093011794
C        -1.53145784876407    5.29031667609801    0.15864768724624
H        -0.95532260157582    4.94080729494868    1.02346231950365
H        -2.58606963075589    5.21052017113692    0.43537816718112
C        -1.29131659930267    4.34615604786887   -1.03500249593458
H        -2.12458400883383    4.46608832526883   -1.73312711087272
H        -1.32058629914375    3.31743696303654   -0.66704596389577
H        -0.88131789452921    3.76164579122436   -3.64672639853100

