47
CSD_code = FUNHEB | q = 1 | S = 0 | Stoichiometry = C20H18N4RhS4(1+) | MND = 6
Rh        4.01933867443165    6.99429832151033    7.24037791304504
S         3.21899839453537    5.55311789569985    5.51296866417232
S         4.62241009907716    5.79844188814046    9.21487371836579
S         6.24484357843856    6.97315338448941    6.30880619688044
S         1.83063472792846    7.47064187305991    8.14137738164061
N         3.47134136727634    8.07006587826138    5.58580539221769
N         4.73773191192325    8.26806701384607    8.67501042239904
N         6.14929906745304    4.34527042539451    6.65694942132739
N         1.53010778323619    4.83870963513529    8.27411418621121
C         3.04905090809721    7.09686295873423    4.76542759049979
C         2.55319618443417    7.36062942899789    3.49221019716462
C         2.50595365833605    8.67693712320882    3.08401124188383
C         2.94719548006471    9.68127030125591    3.94358328844983
C         3.42455794500518    9.33640182130783    5.19257617371495
C         5.01834197617889    7.41290961622532    9.66928343150983
C         5.55439068801919    7.83427076628856   10.88272762007413
C         5.79666808564563    9.18228412679008   11.04186175966864
C         5.50338679073372   10.06265324820576   10.00190053014911
C         4.97260550416684    9.56487863153923    8.82843754513915
C         6.83475495132270    5.39793311516468    6.15680988908141
C         8.06063831788452    5.13454928848684    5.50964295621623
C         8.51057361643654    3.84769804716173    5.39785213673852
C         7.75271981717863    2.78625059647313    5.92858129286146
C         6.57529609564398    3.07316557782130    6.55652778327992
C         1.03088137523834    6.05363889678248    8.59453489647702
C        -0.18326370223537    6.09527638173890    9.31198611590943
C        -0.80515137584347    4.93053030786394    9.66928050405053
C        -0.23669659480956    3.69084300029256    9.31960207076045
C         0.93289388900020    3.68283673975564    8.61607477992539
H         5.28104905671144    4.56536565847591    7.15357083619482
H         2.39073194108947    4.83525211260916    7.71856129498788
H         2.22365235216756    6.54685314479474    2.86684905559586
H         2.12887229965775    8.92734291315625    2.10470475996749
H         2.91940942088914   10.71615435851240    3.64598650639447
H         3.77396110875236   10.08347189346584    5.89121266454639
H         5.76392739087042    7.11158115069129   11.65456467005271
H         6.21129832054778    9.55304008156535   11.96631641623943
H         5.68550722968225   11.11944208652995   10.10355918902334
H         4.73271386641645   10.21215062740214    7.99666818956773
H         8.61580125496075    5.96909103913050    5.11357182124187
H         9.44632469605359    3.64162410584901    4.90257525876240
H         8.09528935086158    1.76933105111657    5.84431917029345
H         5.94385045439087    2.31592283482175    6.99414934529082
H        -0.59087604888274    7.06024677975354    9.56529165961470
H        -1.73140889154785    4.95763654508070   10.22128931391513
H        -0.71520846579976    2.76783497821103    9.59813746243421
H         1.42430544839466    2.77447234922629    8.30527728607508

