45
CSD_code = FUNLIJ | q = 0 | S = 0 | Stoichiometry = C16H23CoN2O3 | MND = 6
Co        3.53763116433730    1.99137748034712    3.59052117132478
O         3.33903454147067    0.68879164784869    2.26053659568911
C         2.38027971047215    0.56719810072535    1.44392504481455
C         1.25798880808512    1.38134504075140    1.39675525136124
C         1.02080537734155    2.43672066610607    2.29034554790990
C         2.48183453849490   -0.56581110768296    0.44227953710982
C        -0.24053506349807    3.23575566741375    2.08306106519176
N         1.83916109593854    2.72052172024291    3.27411458602386
C         1.53284289333048    3.82703527991564    4.15564363054855
C         2.38877339992601    3.67338294494231    5.41018885210703
N         3.65971363286987    3.10029718314086    5.03227393267844
C         4.69430424221570    3.35670849083352    5.75904606127612
C         5.97115204309582    2.75310792107867    5.60518043393016
C         6.14370147875299    1.65494411661510    4.70470304240262
O         5.20105022672384    1.18056833770170    3.97711544554347
C         7.42717460448865    1.05113452166075    4.66622016152285
C         8.46004636128316    1.51029567703973    5.43824188782004
C         8.28174774804518    2.59192293587950    6.30694248972628
C         7.05216903338653    3.19218517139470    6.38701247440582
C         4.40261067017720    3.35822975705214    2.45715268226510
C         4.41834412620396    3.06477274560087    0.97060070330936
O         2.71203384701831    0.26308704573283    4.98746061791547
H         3.60825416957654   -0.05231420894232    5.15436804442375
H         2.35787215818869   -0.31411330476712    4.30389663129325
H         0.52500492571569    1.19029637290066    0.62933132415251
H         2.53740773426840   -0.16108314928060   -0.56578411882046
H         1.60804432440116   -1.21085520161288    0.50281006738052
H         3.37869728905277   -1.14594067418778    0.64063249326962
H        -0.74137290052244    2.92262453920976    1.17203050522426
H        -0.01115077246606    4.29786135310926    2.00895145205083
H        -0.92768356500712    3.09459001941363    2.91740064531350
H         1.76870592506329    4.77785109936039    3.65720434579666
H         0.47442551179047    3.84337791605674    4.43678408284930
H         1.89457467698336    2.97018682299377    6.09172083367483
H         2.51453301575839    4.63192373927273    5.92937871317811
H         4.59167305168438    4.06838906025150    6.58217181900025
H         7.56121229141765    0.21763691812300    3.99306903069821
H         9.42818150911572    1.03323487885972    5.37667113719149
H         9.10575493328955    2.94370121488536    6.90890471220088
H         6.89603667776914    4.02470669237651    7.06026946762890
H         5.43130496580992    3.43454472664914    2.81604170858011
H         3.91612942310143    4.32282410249771    2.62714494782735
H         4.94829447636959    3.86842077799221    0.45209441082094
H         3.41152999533794    3.00795703091215    0.56163352849778
H         4.93460570314320    2.13160792958485    0.76455300289253

