77
CSD_code = FUNLEG | q = 0 | S = 0 | Stoichiometry = C26H37B9IrO2PS | MND = 8
Ir        0.17033439284528    1.99313590847676   19.90023763468312
P        -0.02231310985641    3.64512675100838   18.19144896504098
S         2.59920124656288    2.78360863096298   19.42408770133160
O         0.12676616665285   -0.63832992912698   18.51792856017305
O         0.93425374138773    1.26528328117198   16.70576315550871
B         1.83167630572334    2.31724060620259   16.37576934635524
B         3.59660943176120    2.35606584604509   16.52959661890918
H         4.20163473713551    1.39755614061816   16.83403444962346
B         4.10524635373063    3.89469186046293   17.33010219972294
H         5.00578269621388    3.78284319214580   18.08029772353174
B         3.58405589230094    5.31791943878174   16.23031576628647
H         4.20772517922072    6.30077590970209   16.03193203242163
H         3.65727411999896    5.14301546989921   17.49105104224242
B         1.81982948964847    5.16678035415370   16.21512786171171
H         1.08355809344364    6.08970287541103   16.25421473108554
B         1.34339742803926    3.68365894065471   15.37220089039409
H         0.28912496100037    3.59748178531052   14.85870348313752
B         2.82249980755301    2.74050861049045   14.99500783222142
H         2.89812449343276    2.03919347241305   14.05372730284902
B         4.20629036635828    3.74222491537641   15.56167882625351
H         5.24108490449652    3.67144468065312   15.00572633414396
B         2.76554605818272    4.53708930587380   14.85691157233128
H         2.81747028322002    5.10678383914700   13.82939574712005
C         2.65579642453104    3.13211130680788   17.71020270148661
C         1.44659285316283    3.83992301808069   17.11167169658273
C         0.85558836087144    0.17739864032652   15.82038126246548
H         0.50086432184364    0.51079543902573   14.83975741199435
H         0.15031070057428   -0.54479170167350   16.23117707776000
H         1.83228517360630   -0.30092047690104   15.69707432732345
C        -1.46932510155020    3.55561592236664   17.08816749435972
C        -1.81297382729940    4.60786281018702   16.24403318283165
H        -1.21865635014481    5.50925333701901   16.24012107063169
C        -2.90650303412940    4.49401783010915   15.40577710502778
H        -3.16694038048176    5.31171750770152   14.75018838086053
C        -3.66414361606371    3.33320332216577   15.40107584595422
H        -4.51649285645309    3.24762996810395   14.74338975226162
C        -3.32597655218201    2.28322038704006   16.23858943711642
H        -3.91387864179976    1.37701809943315   16.23443524296152
C        -2.23315623896599    2.39561651218488   17.07984256470073
H        -1.95286162524565    1.58276926046616   17.73816529639020
C        -0.19837785252841    5.30849103504013   18.91097099283115
C         0.93730842808921    5.99432035493338   19.33338272309039
H         1.90892830934898    5.53516961055235   19.22704204876210
C         0.82798662014093    7.25232984232234   19.89499334204506
H         1.71578494270784    7.77949858077391   20.21125876817283
C        -0.41836476055406    7.83702583969529   20.05275355754713
H        -0.50483975386598    8.82180310559362   20.48715734604783
C        -1.55519103875684    7.15275981580071   19.65428814634033
H        -2.52980775282116    7.60172875577461   19.78239806135916
C        -1.44801059157227    5.89383986167511   19.09009004926264
H        -2.33763594614767    5.36634512734209   18.77505868998693
C         0.21787977356774    0.46156395543171   18.85079893968024
C        -1.37573456040424    2.73069349680379   21.53835268690731
C        -1.32420105522870    1.31685853347543   21.52837006066922
C         0.02667178831623    0.92182615795513   21.85880434121782
C         0.75925440619578    2.10616517706372   22.17844480597275
C        -0.06737697730678    3.21603106667532   21.87892124733029
C        -2.61867271781757    3.55281734204249   21.42128067873372
H        -3.28025842722504    3.16547120238232   20.64717264874614
H        -2.38472701847047    4.58886968441805   21.18775099793678
H        -3.16268454714750    3.53324827171905   22.36819879040537
C        -2.49566167783485    0.39271963223589   21.41523860463620
H        -2.89906980945016    0.18551486508006   22.40881631724310
H        -2.20991918455794   -0.55558156714737   20.96492368006428
H        -3.28829814659577    0.83499863940724   20.81526713645715
C         0.44014707931130   -0.47624314342050   22.20525800038846
H         1.51115870910238   -0.61276697848346   22.07387786821424
H        -0.07361471513210   -1.20417209624162   21.58126300207156
H         0.19330382154788   -0.68758132565747   23.24775123580131
C         2.11788113629646    2.19013884493689   22.78905700649139
H         2.03790995649760    2.54641727130467   23.81819967412270
H         2.75228401080645    2.88744710061297   22.24200675937027
H         2.60612476959062    1.21941225325571   22.79685772542564
C         0.28226688426049    4.62282558318088   22.24973722487848
H        -0.40896243765979    5.34051072833159   21.81511136788219
H         1.28981381280356    4.87264751937556   21.92054755295330
H         0.24920187332380    4.73391278755460   23.33598829307510

