51
CSD_code = FUNNIM | q = 0 | S = 0 | Stoichiometry = C22H25ClO2Ru | MND = 8
Ru        3.49889682968192   16.10150623683075    6.30418106286683
Cl        3.83395601784092   14.33548803863554    4.75127353099623
O         5.70028594358589   15.23798370449215    8.14407069356411
O         5.22165613800714   18.00264178427632    4.76939089149042
C         4.90412477502568   15.58939697876959    7.40003919385638
C         4.59005202587776   17.26065444773977    5.37116737351813
C         2.14213204378298   17.37119807290379    7.46810735355008
C         1.63080964628069   17.33743471728905    6.11635915769782
C         1.32104674756500   16.00443255173982    5.77103188470568
C         1.50101288560273   15.17676086416231    6.96914341218900
C         1.18051401348013   13.81116688979019    7.20520911313116
C         1.24582663336937   13.38511417332242    8.52118474295865
C         0.86668157238189   12.11200666551407    9.13938283780172
C         1.15175626394368   12.15158433960618   10.45366638531836
C         1.81800092360242   13.44649538426325   10.83035916381307
H         1.29913660681954   13.93025947547229   11.66483157127771
C         1.72320692974339   14.23853126429755    9.55631733353027
C         2.06126282949103   15.55315403851456    9.36405474389503
C         1.92973919750660   16.04755637331243    8.03899816174408
C         2.36414803986400   18.65245874634928    8.21998895166635
H         2.65072696548585   19.44946265616783    7.53717895454647
H         3.15124401935521   18.55228795258455    8.96105282850178
H         1.44289980213677   18.95424724058824    8.72292948271519
C         1.35282687826944   18.55284546487104    5.27835000255190
H         1.40451174891314   18.32612994055510    4.21571709246195
H         2.06480643358511   19.34962572056121    5.48383561608977
H         0.35132232090664   18.92448346437113    5.50607421205968
C         0.60587152008828   15.59731285851480    4.51645972050656
H        -0.31843032341645   15.07948207614541    4.76843808465497
H         1.21827302254000   14.93374922385696    3.90617391189710
H         0.35731612652516   16.47186602430491    3.91915907723933
C         0.87105014399892   12.89768674441422    6.05821196087106
H         1.11314001000853   11.87395847944556    6.31614598817071
H         1.48179579006240   13.16965482026745    5.20117906379892
H        -0.18062913873229   12.94629464798381    5.77405669593877
C         0.19538673811245   10.96621454163522    8.45555388620063
H        -0.26699554319308   10.31456235097841    9.19350178962282
H         0.91463132235746   10.36877620721878    7.89523566598621
H        -0.57596454066234   11.31558729932232    7.77372348803820
C         0.92661837982756   11.08944677572377   11.47461996131583
H         0.98617937872179   11.50686865875038   12.47737245504102
H         1.67854691771910   10.30401464784799   11.38551506420036
H        -0.05155926765302   10.62648757124635   11.35158491302628
C         3.28259476143859   13.19231574913585   11.21636547354164
H         3.33381366856318   12.53585440255066   12.08166300577278
H         3.79595157324656   14.11989983120745   11.45220581126146
H         3.79966104938898   12.71641701031207   10.38624445315179
C         2.51521815864059   16.43299087752114   10.49192578984311
H         2.40198457597859   15.92362989407409   11.44334106520546
H         1.92547768117463   17.34605698099962   10.52694706590314
H         3.56458376319718   16.70216513956407   10.36767986031044

