83
CSD_code = FUNNOR | q = 0 | S = 0 | Stoichiometry = C18H54N3NbOSi6 | MND = 4
Nb        1.21555687874853    4.45433705818394    7.71468689813797
O         1.74447281472746    4.46618504932515    9.33348028291681
Si        2.37746989611274    6.82125141809989    5.62162137445987
Si        4.25883281493421    5.42371102412081    7.56277126099842
Si        1.83679032443336    1.73394365399764    5.82997843412795
Si        0.88000029188949    1.43109230338072    8.70186800094050
Si       -2.07662505964438    4.78047941653648    7.09327716591265
Si       -0.72466888613264    6.52353593569380    9.18921702528123
N         2.69048264028645    5.58029345766157    6.79740716677972
N         1.22215896350670    2.42603610432452    7.30082493164838
N        -0.64124295654364    5.35145180771216    7.88936976757998
C         3.26222288139622    6.55390287634987    3.93872896933627
C         2.89682162626922    8.57183654957562    6.21862688003788
C         0.50827840336023    6.84337169132965    5.22926621454247
C         4.28234595733435    6.23754661117408    9.29719474695280
C         5.68373053654159    6.18410565269555    6.54377808167972
C         4.63712244020530    3.55799285857239    7.75693949953485
C         3.36217810299343    0.60068366707452    6.11163440497356
C         2.33851728458062    3.14880295705605    4.64891164902554
C         0.56460513494871    0.66903806870916    4.86363746225986
C        -0.70914236941487    2.10542089277806    9.52751077521081
C         2.31068857807059    1.49267118866467    9.97477332551616
C         0.55869558959719   -0.40283384989953    8.27723276027572
C        -2.92898725245760    6.08210313550040    5.96841177220701
C        -3.42923097642210    4.17958552030754    8.31728912948085
C        -1.60563761095415    3.32735283219769    5.94650024567253
C        -2.30398241736295    7.59637700086155    9.15006129744413
C         0.76537945796655    7.71095459683205    9.01197711770265
C        -0.63663404910283    5.67572446479748   10.90501778415002
H         3.08026012487716    7.41115776062099    3.29764475270189
H         4.33502953780984    6.45985491689408    4.05754045379243
H         2.91141328976745    5.67378863012398    3.41031309492088
H         2.10765413676787    9.29841642001599    6.05262516791252
H         3.14324690613329    8.58560118647316    7.27425833217881
H         3.76884432260512    8.91790322382295    5.67383257081827
H         0.28018239287845    7.62212145178630    4.50716723058229
H         0.18050977616393    5.89984409411707    4.79643018134911
H        -0.08287741349811    7.03111162445391    6.12202346206498
H         5.19321451298270    5.98935379967644    9.83293624271988
H         4.21104102087623    7.32052381375499    9.25861757346600
H         3.44044299881026    5.85524665740143    9.87274458114689
H         6.60417317558622    6.13298586827229    7.11347390196611
H         5.84731928358467    5.64745860165470    5.61681640943022
H         5.50231193424905    7.22343959382514    6.30334199096350
H         5.48093358176313    3.39675974147683    8.42078493162025
H         3.76634110893224    3.06520790983324    8.18649394818277
H         4.87087075517305    3.08148580201675    6.80935143633418
H         4.16493538082839    0.83478372439689    5.41935013674688
H         3.75554667551743    0.69062982372384    7.11795328700740
H         3.09847686978311   -0.44000739026541    5.95449461592001
H         2.74541820072498    2.74848643071118    3.72475475953093
H         1.48287406018540    3.76606500623519    4.38060244531842
H         3.09320263796389    3.79045013558328    5.09676317918944
H         1.05203370169610    0.22072072721284    4.00304575580838
H         0.17177761007676   -0.13804887145449    5.47047201867967
H        -0.27840987046275    1.24411687747639    4.49559652136553
H        -0.84799101956040    1.67912561987036   10.51630384165969
H        -0.61988489535691    3.18574050555767    9.63126322049562
H        -1.60160727508920    1.88624428185622    8.94851208768922
H         2.02327418362531    1.02205025577317   10.90971685222105
H         3.21166548269525    0.99824161304836    9.62371559395563
H         2.54632644527378    2.53535708675976   10.18325049987565
H         0.44193720427980   -0.97140741936810    9.19237451869205
H        -0.34913043398453   -0.53003809377368    7.69965712218899
H         1.37635009347753   -0.84041587486223    7.71968257036761
H        -3.85464404827992    5.66892595840477    5.57905953121154
H        -3.18082899146390    6.98340292391553    6.51445600738153
H        -2.32039225955930    6.37178734241852    5.11841427665098
H        -3.86518159312592    3.23909854770564    7.99556763302583
H        -3.03997023030437    4.03879082366998    9.31906303880826
H        -4.23687835584188    4.90110144929093    8.37857020004457
H        -2.48585556652329    2.93760286860152    5.44336428404954
H        -0.90757234151395    3.64125715733107    5.17242801560889
H        -1.15056284669586    2.51276873388858    6.50431063498751
H        -2.32543037367900    8.24120727129131   10.02077162855005
H        -2.33708396376764    8.23405620347630    8.27473299347345
H        -3.20391865249406    6.99568950986937    9.16301285030832
H         0.89625657951219    8.31046539241766    9.90760984249662
H         1.66891928922946    7.12242657569943    8.86065397449980
H         0.65372840493785    8.39375386022427    8.17484209608843
H        -0.51675026584277    6.40759979227441   11.69753392618214
H        -1.52164584641635    5.08917177328806   11.13313242780189
H         0.23040552482524    5.01688433793015   10.92357692518533

