74
CSD_code = FUNPIP | q = 0 | S = 0 | Stoichiometry = C40H21Br8CuN4 | MND = 4
Br       -2.82516256704039   -0.10608476153818   17.81496406039316
Br       -2.86814459541126    2.21801090657736   20.40516609235442
Br        0.29636700218381    7.64507079754452   20.39953891240311
Br        1.20436173685562    9.57450006723002   17.77113551134447
Br       -0.53174465348282    9.10822885801115   11.89222869899879
Br       -0.68002495951645    6.32824465550978    9.96290836280476
Br       -0.28572094990099    0.29990162718658   11.67441158264163
Br       -1.22903012543008   -0.94103743288586   14.78353571623575
Cu       -0.77926354620858    4.64381158951813   15.53210194470648
N        -1.17452555849699    3.51153883474176   16.93551510563953
N        -0.67092454374921    6.07897938750254   16.73833371218777
N        -0.31538210945871    5.58524960907310   13.97588958058672
N        -1.02352104847418    3.11783058441276   14.52075474402542
C        -1.52090246185887    2.24088431124452   16.58418810800571
C        -2.09901310286317    1.61138533605550   17.70294370046338
C        -2.08633782744185    2.53373710112744   18.73662800778756
C        -1.49920945188229    3.73031879662602   18.24270139411836
C        -1.20814204645607    4.94212376558522   18.86996395666268
C        -0.69722552669219    6.00180026313354   18.11591394783060
C        -0.10358286945101    7.19143398697908   18.63065812472981
C         0.24798456767805    7.97983601615852   17.56497224538501
C        -0.13463764715727    7.28845149531757   16.37629717486497
C        -0.04217343252244    7.76713217818760   15.06890388980297
C        -0.24773896115585    6.95513789661910   13.95302124379615
C        -0.35268319322801    7.38374398237594   12.59555406926116
C        -0.43415156459705    6.25923385324542   11.81464954228952
C        -0.39756412871724    5.12520202328886   12.67774265695203
C        -0.45075993953465    3.78616321695137   12.28124426279920
C        -0.70580975703004    2.79789529544718   13.23244616466736
C        -0.74814149258177    1.38085389405050   13.12794188083251
C        -1.09594412552608    0.87580749385786   14.37022394494914
C        -1.26512498538632    1.97844100805095   15.22896644670011
C        -1.41391181058212    5.07646506072274   20.32163270207015
C        -0.59849433533031    4.38852037806708   21.21407999162824
H         0.20041221272062    3.76736397940977   20.83516021320749
C        -0.79659607154562    4.51677918067473   22.57480299943703
H        -0.14826781285099    3.98673043445507   23.25639931059543
C        -1.81936545413969    5.31205358346775   23.07441781796829
C        -2.63945106076222    5.98577343797875   22.17491830582545
H        -3.44248400018357    6.60403763410639   22.54808984518944
C        -2.43872318581823    5.87935258114437   20.81437366130337
H        -3.07919321697016    6.40827119507694   20.12302605400378
C         0.29234532277252    9.18928679635567   14.85827694777842
C         1.53059099595906    9.55011797287580   14.33774872058856
H         2.24869685914367    8.78067333707474   14.09234417212951
C         1.84339247042746   10.88258691319951   14.15296043910359
H         2.81239999988814   11.14959959818188   13.75841799214429
C         0.92757417324310   11.87954018309589   14.46270723630930
C        -0.31262253219496   11.51019864237271   14.97331560731242
H        -1.03690013100457   12.27374228133079   15.21516672434102
C        -0.62792160521098   10.18333041002096   15.17961055020015
H        -1.59329256411413    9.90503668861776   15.57776784871628
C        -0.26451966270437    3.40854102910815   10.87044246708229
C         0.99157414708462    3.50487216166000   10.28189055119122
H         1.82627332295637    3.86684766760694   10.86516286746340
C         1.17140380160915    3.12486706694611    8.96604476286267
H         2.15451108080090    3.19443058956276    8.52453953956403
C         0.10670333719260    2.65880487649235    8.20621858525999
C        -1.14848828461164    2.57308834420603    8.80009475111055
H        -1.98704214125388    2.21490117476756    8.22178686494718
C        -1.33515598924624    2.93190331494202   10.11848639611374
H        -2.31352555019551    2.86050772988595   10.57152489836205
C        -2.04641029633633    5.45117418680469   24.54606755643439
H        -1.32849853519044    4.86199414251049   25.10988342412080
H        -3.05085867369366    5.11969268613669   24.80541644837031
H        -1.95297575164243    6.49459535095425   24.84401968815908
C         1.26023957066306   13.32449771492134   14.26858762739707
H         2.18952795318904   13.44115965511883   13.71781081643116
H         1.36806294249387   13.81397593625260   15.23624566675359
H         0.46307503211002   13.82962328130118   13.72654633947536
C         0.28935033070129    2.26288834845242    6.77570266450577
H        -0.13457707648248    1.27638520355488    6.59731630762254
H         1.34156477200608    2.24802797130652    6.50495843943215
H        -0.22544871836858    2.96943464208701    6.12519141126141

