61
CSD_code = FUNPIO | q = 0 | S = 0 | Stoichiometry = C32H25ClN2Pd | MND = 4
Pd        0.52729716360315    6.07775285351517    2.91221837384065
Cl       -0.17196624753686    5.82105629928972    0.82045212475008
N         1.53663068541270    6.46253453872730    4.65056673382226
N         0.65029246329750    8.38597699386787    2.90122004120561
C         0.46490469405990    4.04073640113855    3.12518371892878
H         0.03633330205777    3.54724246056633    2.25115741977531
H        -0.16240129056668    3.81554192937174    4.00036829257420
H         1.48383083367523    3.66194769838775    3.28072952736474
C         2.19569534221893    7.65940799254497    4.62087434242912
C         1.79897028989886    8.66092215988430    3.68749134055068
C         2.50158466301445    9.84335237201276    3.62071818788498
H         2.19747978188278   10.61150951651897    2.92759369800975
C         3.60125448509882   10.07649075028780    4.45327635037867
H         4.13550067006758   11.01073857352489    4.36760247735073
C         3.97790120800128    9.14856276334181    5.38389220334364
H         4.81128414270951    9.33063178158063    6.04546549287400
C         3.28049869494504    7.92950825445323    5.49711112423015
C         3.62347103891334    6.95053755558601    6.45302216346949
H         4.44122650128428    7.13769464131306    7.13273632478361
C         2.90320458716434    5.78696556625495    6.49890552597702
H         3.12055057677557    5.01963677953965    7.22495792102921
C         1.87678039806115    5.58145908969303    5.57131385316539
H         1.31468360787971    4.65751211677580    5.59138524615749
C        -0.57610596695859    8.65359762633236    3.68278683261611
H        -0.69575701467008    9.73867298914647    3.83657651230945
H        -0.48323993189683    8.17392394632866    4.66483594005925
C        -1.73261773176377    8.07985047451358    2.91491832613138
C        -2.24985861376191    6.81241454889498    3.25719439581948
H        -1.89880676737448    6.31207314835585    4.16305485725663
C        -3.23926401822031    6.25430750833599    2.49517372180531
H        -3.65464878137407    5.29144649268829    2.75380065956028
C        -3.70737762534690    6.90445007083937    1.33344123990890
C        -4.67448672274276    6.30611261201746    0.49993497769408
H        -5.07147810234494    5.34146854476839    0.78151082661399
C        -5.08699901872795    6.91957550163853   -0.64910833248445
H        -5.82343155546297    6.45116079765533   -1.28560614514300
C        -4.53949143576376    8.15589434030808   -1.02083636640657
H        -4.85256849679699    8.61896552078037   -1.94523469978563
C        -3.60955351734268    8.76910597925255   -0.22844023393310
H        -3.18091976432505    9.71290329125654   -0.53047665753611
C        -3.18414769107001    8.17588077909761    0.97849504228262
C        -2.20729883522767    8.77322756109264    1.82080839417552
C        -1.62398391147933   10.09932375179133    1.53262251185573
C        -2.43870221090744   11.26030038805751    1.44781183998551
C        -3.82501887480655   11.23418899487489    1.71618675881829
H        -4.28455890752033   10.30125103926129    2.00547020803398
C        -4.57861712377370   12.37024026986911    1.62301480864854
H        -5.63761717202405   12.33551094447303    1.83259441275018
C        -3.98824226018212   13.59059823350340    1.26033986180401
H        -4.60141055185044   14.47644576178391    1.18315570763999
C        -2.64505482923450   13.65580651042652    1.02169665291847
H        -2.17639558922284   14.59387644635623    0.75955941530867
C        -1.83635100436513   12.50431750954449    1.12177473736678
C        -0.44316407317161   12.56056379712024    0.91572249462182
H         0.00607864408171   13.50502581187405    0.64418009066861
C         0.32777246845609   11.44434402760400    1.07312321013481
H         1.39689136978370   11.50243871562120    0.91865209780616
C        -0.24996665522441   10.20613853764823    1.40107038231835
C         0.60400129879923    8.97555882539581    1.54283896339151
H         1.63012489691714    9.17034887465561    1.22143466231752
H         0.18925848496703    8.19557073865808    0.88417940877387

