57
CSD_code = FUNQUB | q = 0 | S = 0 | Stoichiometry = C20H33NO2W | MND = 10
C         4.63398942769785    4.95522863311749   15.05812622635687
C         3.18150155466094    5.37053433284866   15.20746997498612
H         2.86952331090014    5.01278771525816   16.19479615930467
H         2.59047246541906    4.81187983729768   14.47699181844762
C         2.85327003668986    6.87288978318485   15.08752555588304
C         3.52366241708303    7.65886271676406   16.21494970982955
H         4.60316996113832    7.56247606696377   16.15146309834108
H         3.19670945595520    7.28922696235701   17.18488372696470
H         3.26650111538675    8.71371106549122   16.14507381240857
C         1.33350586845578    7.03396749350581   15.19632031978950
H         1.05844665253828    8.08403168724968   15.12409641536970
H         0.97368134400141    6.65021970607156   16.14834911485628
H         0.82922152663434    6.49275905747057   14.39851665905049
C         3.32077687460541    7.40401763538372   13.73139329863408
H         4.39956824493421    7.31260649616612   13.64110341702009
H         3.05584145694100    8.45365737345883   13.62436519065510
H         2.85169230018472    6.84880204081346   12.92066848367618
C         5.15771749371122    3.81497535329379   12.87946700176696
C         4.45438844199801    2.60194206985880   12.78785573674581
C         5.12766179316643    1.43378425562325   13.22368133772408
C         3.01726534165569    2.56266664742636   12.34164767029000
H         2.55036881611158    3.54288344734198   12.41795380677258
H         2.43801879356284    1.84670132116359   12.92323953223993
H         2.98691155875057    2.25128317148800   11.29603654541066
C         5.75409773527772    2.21506435014915   17.13353167435433
C         6.34167352676529    3.50106814019545   16.90016523400578
C         7.31431423646154    3.35528655753272   15.85742379669789
C         7.31230448580812    2.00969743703180   15.43498012596026
C         6.33888214861604    1.29493802609724   16.21457527096545
C         4.84900086719597    1.85609994313860   18.27841129052686
H         5.44059121282573    1.50987978573445   19.12827995170023
H         4.15786021379627    1.06301324659593   17.99707885341716
H         4.26436580404050    2.71762323831716   18.59651305882098
C         6.22731878306635    4.68911086097524   17.80876047341832
H         5.23679421544588    4.75077845339084   18.25690751776774
H         6.41825256839603    5.61217479183117   17.26635195009338
H         6.96219823405449    4.60712778522003   18.61279225302981
C         8.30152592475755    4.41050512916181   15.45875416560904
H         9.00929544013342    4.57828054303494   16.27307878940450
H         7.79817672029881    5.35322980530398   15.25018510250958
H         8.86340756276358    4.11210597416184   14.57559053592942
C         8.34253988979438    1.38108976803615   14.54066516112206
H         8.55753165135396    1.99820807062252   13.66755986406739
H         8.02785492338386    0.39659459757357   14.19968153930084
H         9.27575061470901    1.25739889924699   15.09499838190782
C         6.15273122200912   -0.19310050214776   16.24994788279877
H         6.82660811186969   -0.63675939783462   16.98627929517873
H         6.36320905720250   -0.64528093252558   15.28264839451623
H         5.13185854872826   -0.44745311780746   16.52897807019979
N         3.39563814684068    2.48041703050365   15.31661297454272
O         2.29123778054597    2.16406070171374   15.63195352799958
O         5.54082360386413    5.75571963270476   15.04525244940074
W         5.09599675337694    2.83806655969800   15.01724415319373
H         6.24114271243393    3.80778730834849   12.74614879899919
H         4.68305842774727    4.71565644242883   12.50555351621685
H         6.16795611230399    1.32132667454881   12.92289162152446
H         4.56803651195263    0.50358932741678   13.18132971229938

