61
CSD_code = FUNSOX | q = 0 | S = 0 | Stoichiometry = C24H32Cl2N2Zr | MND = 12
Zr       15.62888869730868    6.43875186240625    7.96122765322057
Cl       13.70850874491955    5.10042881147310    7.84513870920652
Cl       16.92238486127494    4.55486751708758    7.44118422942997
C        14.88356691266342    8.37750867631783    6.72197406749053
C        14.60036136197292    7.28038307833095    5.86357776885233
H        13.61647894267770    6.99159561666075    5.51407388968025
C        15.82387716645932    6.72630604777663    5.44095055487141
H        15.94168739700834    5.92416217684412    4.72247032088678
C        16.87322971403131    7.47053953819658    6.02824357636213
H        17.92787576754719    7.34299201682781    5.81852579559519
C        16.30129905045046    8.49544587896056    6.81103217645335
H        16.83913001238646    9.29909782566116    7.29754737169969
C        13.88822906658464    9.20030631734682    7.43561387074261
C        12.79000956732845    8.61788979601898    7.94079002633087
H        12.01596268749216    9.17081275676579    8.44135154171539
H        12.64459007872362    7.55087466911782    7.85356090222960
N        14.25469764540299   10.53084919009247    7.62399242676755
C        13.51211879365525   11.34750620873173    8.55830873851261
H        13.21610845290320   10.72796278431091    9.40706333827080
H        12.60193986771412   11.76423435081490    8.09764655339322
C        14.40376742516572   12.48782285532401    9.05172270196312
H        15.25592411321424   12.06227262419634    9.58581662265849
H        13.84222513675920   13.11028224310019    9.74989427186030
C        14.91245912005335   13.32103584112563    7.88048017819575
H        14.06934625140704   13.80892455971432    7.38599256499301
H        15.58957431235367   14.09931224176763    8.23714672256797
C        15.62418393674777   12.40836695151537    6.88729702902358
H        15.94536805787992   12.97097012342722    6.00981697918422
H        16.50896445644419   11.97507191754233    7.35760381110180
C        14.68508823832959   11.28447894865364    6.46043179935901
H        13.81156336595535   11.72159157130593    5.94852956933311
H        15.18410983873287   10.61158542805058    5.76242197027058
C        16.94065142678084    7.37975114574684    9.77273893470218
C        16.73612148817157    6.02217576456078   10.14065687605549
H        17.51676829466710    5.28574948802305   10.28917840370634
C        15.36533641919776    5.84264858036673   10.41047814101649
H        14.90705810552025    4.93617545663430   10.78738730417139
C        14.70992787567633    7.08066685329986   10.21390178130341
H        13.66830644480304    7.28179480576932   10.43125519434129
C        15.67696594977551    8.03430077560505    9.83172663326085
H        15.51333598627243    9.09808268920871    9.71758412386280
C        18.22361065060185    7.98330925246286    9.36276562856625
C        19.05376612171851    7.28774406865312    8.57136062189439
H        20.01575229785275    7.65761601654180    8.26599508236625
H        18.77618561444250    6.30601245164561    8.21421961417588
N        18.40654893623391    9.30593239875174    9.76582959723195
C        19.49987385441731   10.06335024060865    9.19527230194115
H        19.58296003647700    9.81018343676494    8.13628006386187
H        20.45694980410716    9.82327728726710    9.68625288757573
C        19.21663590596598   11.55908852623635    9.33651783613816
H        18.31593387700067   11.80501418690553    8.77037787575355
H        20.04815969356681   12.12449416677334    8.91318451875624
C        19.00523995242005   11.93051866233885   10.79981747189538
H        19.92631559455260   11.75155500894524   11.35929351086195
H        18.75725256246395   12.98960930127072   10.88913769359771
C        17.88609803921678   11.06938533114284   11.37487698365771
H        17.75072031951890   11.27340023305909   12.43778170525892
H        16.94977221802475   11.29753180816931   10.86235598347832
C        18.21940265569396    9.59425573282794   11.17777389781508
H        19.13957488549995    9.35684486425868   11.73754943503060
H        17.41635594781226    8.96630104069647   11.56532216549895

