47
CSD_code = FUNSIR | q = 0 | S = 0 | Stoichiometry = C18H24Cl2N2Zr | MND = 12
Zr        9.24906768036333    1.82476399423374    9.93763446723881
Cl       11.07487890511045    3.25743209361173    9.69081860249820
Cl        8.81790211722780    1.74039821134259    7.64949356394628
C         9.62475836839036    0.17232513787226   11.69128290763870
C        10.88889976624093    0.46383123935360   11.10518271294301
H        11.75682971461805    0.89426356356271   11.58920728706335
C        10.89661794236666   -0.02211462061062    9.77452765368882
H        11.75049600135539   -0.01797338978640    9.10576078403717
C         9.64468449557521   -0.61912207544756    9.52317615980709
H         9.36598823797670   -1.16464723722798    8.62930995368003
C         8.85669460828326   -0.48949389811186   10.68888461582270
H         7.89027343378534   -0.95772579338267   10.81679703392405
C         9.19652478109022    0.47980302060490   13.12414810023861
C        10.38613525921015    1.03312245931941   13.95009108003431
H        10.27131908068552    0.78795366204668   15.00233687030268
H        11.38427230291481    0.74425516829159   13.63485487223329
N         8.53051124232027   -0.61914337298772   13.79742846069296
C         9.30254786644421   -1.84389761141448   13.76823985475309
H         9.31006235865449   -2.32658468095063   12.78090125477176
H         8.87288739057557   -2.53803074242946   14.49035921353104
H        10.32955283361547   -1.63165021688189   14.05700205518174
C         7.12863455208793   -0.84656382003814   13.52034591955807
H         6.61719897263766    0.11020170335072   13.47237759503802
H         6.71298604196125   -1.41995011527054   14.35139660271741
H         6.94582909976096   -1.42083044717676   12.60197953607543
C         8.04005933219428    2.47506878347419   11.90023712975709
C         8.45286170599842    3.68826407458179   11.28339487274236
H         9.10243709499321    4.44106868503314   11.71448384374443
C         7.74820575567876    3.82787768685778   10.06505907785986
H         7.79767043667594    4.68288583286339    9.40036504203307
C         6.88284879554510    2.72075289369189    9.93061280314801
H         6.14711669077823    2.58328850819561    9.14754904080394
C         7.05530967534235    1.88781833896384   11.05745914845202
H         6.43160719150645    1.04152729079157   11.31161155476841
C         8.53462691548100    1.93267034539908   13.22077816755239
C         9.94336831414432    2.46236364874779   13.63346789293081
H        10.48967252896353    2.88139806007945   12.78303902236755
H         9.96168419080518    3.16857401436295   14.46021258772240
N         7.47028431810582    2.08450168183786   14.20841250039021
C         7.77102185072404    1.65298258387728   15.56081499411816
H         8.49264487666639    2.30416612216174   16.07306984839511
H         8.14120483291497    0.63377696930190   15.54328028342393
H         6.84041907880907    1.67225740575980   16.12810913723379
C         6.91065303048871    3.42532945751441   14.23121721714611
H         6.07907896665825    3.43216910557013   14.93396815665605
H         6.53076083251382    3.69217387388659   13.24824435922106
H         7.63681053182416    4.18716240514582   14.54907616214935

