77
CSD_code = FUNYUJ | q = 0 | S = 0 | Stoichiometry = C27H44FO2PPdSi | MND = 3
Pd        2.53514547849035    2.14737801041749    1.40091540301450
P         2.30910336107281    3.70082106497790    3.01246553587867
Si        3.29379755367362    0.13414370087226   -0.83979142333435
F         0.87148193285911   -3.19465475607289    3.77101694329129
O         2.23783204573153    1.24720361752795   -0.48875440450686
O         7.65657901965135    0.52989516517494    3.41974261549157
C         3.01262074035514    5.11467199044302    1.90860783236727
C         4.53958528492699    5.08576216058596    2.03178243707800
H         4.98061649712298    5.70099134348761    1.24662743116064
H         4.90474635248039    4.06599227749382    1.91072629388062
H         4.88226589211795    5.48544434995140    2.98102783602223
C         2.52191338607748    6.53760015209881    2.16785996025240
H         3.07881367605514    7.22636335964742    1.53188042786123
H         2.68266121640107    6.83440275785898    3.20091279471593
H         1.46853709259713    6.65473948228941    1.92875077838478
C         2.70755435877678    4.70699921730511    0.45096313896452
H         3.38101364764079    5.23865513891916   -0.22427781446587
H         1.69323148416722    4.95460816746949    0.14640969123104
H         2.87139463413477    3.61543446473533    0.28871392520899
C         3.20046494629459    3.70585185836677    4.70196884773330
C         2.42570292236431    2.76529297120179    5.62859184975727
H         3.03229466401572    2.53299492661162    6.50299069218902
H         2.19267134521680    1.83152956896784    5.11877197105180
H         1.51068461760560    3.22658877490368    5.98682006059934
C         4.58633304270758    3.08185402344544    4.48096204999417
H         4.91078004598638    2.56338853676022    5.38137436143364
H         5.33783147650785    3.82967663856974    4.24939448646261
H         4.55095761273701    2.35203927469495    3.66757136368518
C         3.32691168645543    5.07153359022010    5.37421602543282
H         3.79176750283895    4.94109817683353    6.35115978958055
H         2.35636535764457    5.53455369110311    5.52447568446589
H         3.94872730453602    5.75459665785989    4.80313112497476
C         0.42550374329021    3.97570088292673    3.24371136558657
C         0.01156225348606    5.16715907702650    4.10482439787977
H        -1.07033619010018    5.28376474593109    4.04670388111748
H         0.46630395242959    6.09614756727869    3.77789623006312
H         0.26519753415065    5.00435283700127    5.14915279261028
C        -0.14952580118986    4.10938566935370    1.82711816752134
H        -1.23324456003823    4.00389957884404    1.86285480867281
H         0.24339756956843    3.30605657803404    1.18017593528703
H         0.06153756853429    5.08200206424579    1.39143897838951
C        -0.19633069793339    2.69798847111035    3.82278913641849
H        -1.26708277730679    2.70147849629789    3.62435973041692
H        -0.07245025989731    2.61579164803033    4.89596242004558
H         0.23270918555843    1.81559101256151    3.34820058984206
C         1.98730153265665    0.48299510339718    2.32363557906607
C         2.80583006485793   -0.18717859961907    3.22030278724912
H         3.74956559492434    0.23717291197203    3.54166350788529
C         2.43495396585118   -1.43117742235705    3.70941904420557
H         3.06326270996285   -1.97001503289094    4.40129833345446
C         1.24092815972236   -1.98409960344792    3.28803646234119
C         0.41293019010027   -1.33920883462639    2.38805745699096
H        -0.50423132847231   -1.80895723396519    2.06842911559423
C         0.79653454835449   -0.09871697048456    1.90365948217587
H         0.17014871788870    0.40229906388688    1.17181536200007
C         4.14583885616530    0.42662095793924   -2.52702541048346
H         4.61427556960625    1.40408483166185   -2.58803229755085
H         3.41769950337982    0.36160059523824   -3.32789763302807
H         4.91004743289730   -0.32026246932310   -2.71203960515486
C         2.61437281839973   -1.64807825641125   -0.84423352868566
H         2.28249725003382   -1.96217099147689    0.14028630501675
H         3.35741033297295   -2.35596851721377   -1.19476329118723
H         1.76226323203244   -1.71159633984819   -1.51230082554088
C         4.68439672367004    0.22657207680979    0.48713807979021
C         5.25442663400851    1.46539696111712    0.77463376654211
H         5.00064634488547    2.32408506154729    0.14756732815118
C         6.25843725293748    1.61387183386336    1.72836245112513
H         6.71791090210202    2.58121367570131    1.87781193297871
C         6.68897271544089    0.50727301643536    2.44878003698495
C         6.11861298635193   -0.73681080711364    2.18421313669750
H         6.46989114423275   -1.58889232788119    2.74613060683195
C         5.14224199394464   -0.86576208138223    1.21798996796436
H         4.72716333520972   -1.84217028247205    1.01989666377948
C         8.33246674424232    1.73545918796914    3.66222124658581
H         9.07414866027392    1.51115906098466    4.42765665877773
H         7.65492433169856    2.51172068101301    4.03549409656421
H         8.84260337990267    2.10127176760591    2.76449703914639

