87
CSD_code = FUPBOI | q = 0 | S = 0 | Stoichiometry = C36H40Cl4N2O4Ti | MND = 6
Ti        8.30376914949994    4.88944327257344   15.97720347066922
Cl        3.92710089291832    6.20770884668575   16.32412122151203
Cl        2.94081264325091    3.50895278312380   20.86183279510223
Cl       12.29965275595047    0.87307532642480   11.27163225509049
Cl       12.63853911111042    3.63895505020747   15.88260043411090
O         8.98147784344667    5.76605916372138   17.31941831650396
O         8.21115691799202    5.98990638842436   14.63157870894442
O         6.60564857186410    5.09304419390747   16.59425065017138
O         9.83442085747334    4.11077010050768   15.44890898344359
N         8.13970518674820    2.88488575944469   17.31461685975132
N         7.40479855101440    3.24020017842209   14.53937670822804
C        10.26550135371215    6.15165769509676   17.67037334367748
H        10.87012237903296    5.24217034272568   17.87678895226725
C        10.21985627774623    7.00649741639826   18.94637471198388
H         9.61161348899572    7.89037173020310   18.76409998791306
H        11.22149414835677    7.31196879571192   19.23744157145787
H         9.76830944899768    6.44296374295506   19.76076334324982
C        10.95427046685079    6.91920222854069   16.53296866126486
H        10.82460049938796    6.35346650821239   15.60809547207000
H        12.01537439731704    7.03691666931484   16.74259625877296
H        10.50171405066188    7.90329511710738   16.41909097213597
C         8.03442647301126    7.36402127609990   14.54556927651126
H         8.31105715870921    7.82461560214912   15.51590227577491
C         8.93483450461446    7.93751257312383   13.43907093264812
H         9.97128973419301    7.66406877764769   13.62573269662427
H         8.85135112778101    9.02057944760315   13.40241695606796
H         8.63779205525583    7.52574906495618   12.47592272480120
C         6.56291928078142    7.69681930784501   14.26324946053074
H         6.26902584544611    7.30163583115696   13.29131772923691
H         6.40634579950986    8.77257544037115   14.26731235030627
H         5.94650623272200    7.24164708611287   15.03492043120674
C         5.81597745534683    4.74089458814756   17.56063839060260
C         4.47267209740776    5.18516636600336   17.60241227625552
C         3.58918082505521    4.82923140766638   18.60029583950984
H         2.57804114403029    5.20285368939730   18.59092009443634
C         4.02654925716692    3.97736245807265   19.60076924790960
C         5.32068377189037    3.48514509618782   19.58756215224280
H         5.63948785655373    2.80901762379604   20.36697217687928
C         6.20851749749627    3.85189403957828   18.58919236947470
C         7.61530328567982    3.32019294693779   18.62000333119747
H         8.28234343964011    4.11757474914266   18.97434648242843
H         7.63980697195348    2.48658353531454   19.33901753380094
C         9.47996033755745    2.28921358069556   17.51675785451512
H        10.13158339389928    3.08794885723649   17.88332522106368
H         9.86023076725813    1.96349533953364   16.54676513197483
C         9.54154760434518    1.11482736844386   18.46520712736997
C         9.77232727952449    1.30502130255976   19.82433082194365
H         9.93728685346279    2.30383977660743   20.20263751310971
C         9.81280093870899    0.22932448942902   20.69360732239479
H         9.99207135394105    0.39557434123996   21.74543080471423
C         9.63026956256602   -1.05741444338778   20.21606703664357
H         9.66006396300975   -1.89715973794279   20.89380803298579
C         9.42872349078483   -1.26282582289690   18.86239921147371
H         9.30803768585801   -2.26517487973653   18.47894330660883
C         9.38967184315831   -0.18522808584753   17.99408457662684
H         9.26213658840374   -0.36161480628657   16.93465540375767
C         7.22769626109926    1.95167692135865   16.64920939485122
H         6.20273950960441    2.28720380244231   16.83378637999025
H         7.31697611789281    0.93589374065241   17.06522272332355
C         7.48432198950529    1.90554488199300   15.13874928102100
H         8.48791907783288    1.51043839741234   14.95090961508589
H         6.76881368107225    1.21293218114842   14.66925208043289
C         6.00494661174290    3.64873880497517   14.27968816836134
H         5.45030068031030    3.57817410296201   15.21691594631966
H         6.03800990495885    4.70226760297176   13.98433144613554
C         5.27203521390612    2.84155424459686   13.23449958532647
C         4.52332276306032    1.72664863175663   13.59772658971689
H         4.43586218184924    1.45466401266405   14.64093803922894
C         3.86125992070633    0.97468989764770   12.64212197783281
H         3.28501849333385    0.11217861407252   12.94268251864797
C         3.92971121963988    1.33232044104695   11.30700894064239
H         3.41399287576251    0.74644215504907   10.56118867513138
C         4.64788722321660    2.45636712759336   10.93534187120939
H         4.68887583939709    2.75286599185990    9.89777429440244
C         5.31002323765607    3.20526637633154   11.89182618027234
H         5.85243441256940    4.09142528774574   11.59527101102121
C         8.15870410165832    3.29229868761620   13.27635837796459
H         8.10023101088070    4.33029744381263   12.92273512843532
H         7.69888787248842    2.62888353618668   12.52680986026581
C         9.61183264201410    2.91983670449783   13.40082062330442
C        10.21912297684674    2.14426105107723   12.42625323876007
H         9.63794604709296    1.77566585745705   11.59409389628404
C        11.56882752039329    1.84060622713013   12.50290884474546
C        12.33987875287815    2.29800890024480   13.56006597058123
H        13.38907915656348    2.06073407664817   13.62695304656516
C        11.73127056320958    3.06179205095988   14.53373849944912
C        10.36190967180586    3.41034275141319   14.49302002276065

