93
CSD_code = FUPCEZ | q = 0 | S = 0 | Stoichiometry = C38H40Cl4N2O8Ti | MND = 6
Ti       10.35472196561545    0.00000321409914    7.60719034339170
Cl       10.22063026261040   -0.38389829813023    3.15853125683592
Cl       13.01417940243517   -4.99198225475372    2.86756825146696
O        10.69986009023196   -0.63204617888236    5.96581575146600
O        16.89593330011822   -2.94149303091913   11.06706216922323
O        16.29457612778245   -5.15015469263470   11.33022706155849
O         9.33556551469536    1.28524470088021    7.02235876088664
N        12.28491221487047   -1.38669181972205    8.05281242729433
C        11.20809390930777   -1.62447533968464    5.30703008875528
C        11.08991637363745   -1.67702855273629    3.89913482113019
C        11.62642571407123   -2.69594252753799    3.14095124908501
H        11.50905773696683   -2.70198524273323    2.06973783494269
C        12.32167663892997   -3.70445325721597    3.79076748726264
C        12.47258146809247   -3.69089338143245    5.16798620263407
H        13.01839902507248   -4.48757594904603    5.65110528062493
C        11.92488107129202   -2.67032619591437    5.92892506627610
C        12.04212608606337   -2.69643397932215    7.42970304133389
H        11.09574220436556   -3.06356624335061    7.84710806002176
H        12.84355956968154   -3.40359848303672    7.69658194224149
C        13.48880147176668   -0.75953554021372    7.50259937792098
H        13.51999847911447   -0.97817718553058    6.43067623167166
H        14.40090784262923   -1.18546542804884    7.94874961251316
C        12.36262946192163   -1.56396328163747    9.51993471248786
H        11.35976704339867   -1.85358267490268    9.85153828184998
H        12.59953252232100   -0.59792577600593    9.96764722139356
C        13.37865888470402   -2.57072807842067   10.00880217230515
C        13.02613030245075   -3.90169377986596   10.19084710333835
H        12.00870419654300   -4.20643158101900    9.99929092817551
C        13.93492059983263   -4.86024467516734   10.63245145686532
H        13.64931716012511   -5.88865719206906   10.77380348777319
C        15.21553737423296   -4.43579110361697   10.88846125070609
C        15.57936092698434   -3.09761924691936   10.72851390895410
C        14.68359506831327   -2.15079203427430   10.29787004386050
H        14.97888268835307   -1.11719016749111   10.21688868216347
C        17.34985656108501   -4.22092182248463   11.45609681500325
H        18.18917267027820   -4.52609534929526   10.81140556167903
H        17.69006319225203   -4.18872990330166   12.50347482617199
C         8.11831325939894    1.84808099479430    7.37104178947392
H         7.30320963497579    1.24770856101295    6.91389929591046
C         8.02282568967060    3.27730298579092    6.81146126825062
H         7.03623091892886    3.69265311714072    6.99846515285115
H         8.20481332300726    3.26288633926500    5.73866949442437
H         8.76893493470275    3.91216717153316    7.28750143982505
C         7.91755422563345    1.85491852503478    8.89495207341631
H         8.13490041437111    0.85833671024013    9.28724003564369
H         6.89503785493206    2.13244802442924    9.14293328222345
H         8.60031680865735    2.56872305789656    9.35753801090998
Cl       10.22055490176559    0.38355497524675   12.05589792974173
Cl       13.01498465963880    4.99107034393649   12.34738986947136
O        10.69967466910895    0.63203693979898    9.24861193750088
O        16.89579595093112    2.94186882331115    4.14737146944708
O        16.29435896457984    5.15053817237151    3.88445375848587
O         9.33548080008360   -1.28522618076147    8.19188647219897
N        12.28496626405543    1.38666675879846    7.16172233815374
C        11.20812843491485    1.62426743112460    9.90752519138332
C        11.09003455049684    1.67663475880339   11.31543433620170
C        11.62677964438079    2.69533553392831   12.07373823739836
H        11.50947093493348    2.70124211537698   13.14495886223287
C        12.32218623751918    3.70381183678392   11.42403522290819
C        12.47301265294982    3.69043011149022   10.04680569054357
H        13.01895273500620    4.48708180170422    9.56377432061251
C        11.92507720871171    2.67007893119451    9.28574790441190
C        12.04224245331391    2.69635617690875    7.78496808296025
H        11.09584359173263    3.06354724569896    7.36765118054725
H        12.84367613176826    3.40353105007665    7.51811907793370
C        13.48886510599753    0.75942758937141    7.71181930816598
H        13.52018258977892    0.97806731022761    8.78373960576988
H        14.40095799141822    1.18529270527259    7.26558235790002
C        12.36261110671657    1.56405989036775    5.69460996618482
H        11.35972421768182    1.85367792755235    5.36307822357888
H        12.59951422041090    0.59806106243292    5.24681307766581
C        13.37858840461424    2.57089458779007    5.20578002361948
C        13.02601030951345    3.90186746380226    5.02387965057610
H        12.00858517658946    4.20655539269889    5.21552012471291
C        13.93474792229551    4.86048915143015    4.58232156260443
H        13.64910658038611    5.88890691449249    4.44108368647662
C        15.21536457974433    4.43609866952956    4.32620555988264
C        15.57923637342756    3.09792235124018    4.48600399477285
C        14.68352193436850    2.15102578529374    4.91660331039213
H        14.97884539287980    1.11742485842356    4.99746696927168
C        17.34966147927432    4.22134991544386    3.75844152732544
H        18.18899979156171    4.52648509609585    4.40312222479452
H        17.68981901052054    4.18927182842200    2.71104422518226
C         8.11822988165703   -1.84800171529725    7.84310396823093
H         7.30312516872075   -1.24759989568309    8.30016187689810
C         8.02259895162857   -3.27720567054328    8.40272174494258
H         7.03599621301941   -3.69249861336194    8.21563023036941
H         8.20449961247093   -3.26281520826701    9.47553877332453
H         8.76870865546275   -3.91209472489751    7.92673472432320
C         7.91757347253404   -1.85478062126846    6.31917547692319
H         8.13503316158794   -0.85821370858219    5.92688439970456
H         6.89505182633733   -2.13222896649825    6.07112099256788
H         8.60030789708276   -2.56864935610239    5.85666991750915

