141
CSD_code = FUPCAV | q = 0 | S = 0 | Stoichiometry = C54H76N2O8Ti | MND = 6
Ti        0.03379460164358    1.24562852441200   11.78453031957651
O        -1.62167985923342    0.82363834640688   12.21544642204775
O         1.75190266526578    1.16178272625569   11.35923758315529
O         0.22984762016934    2.13487410303550   13.30026981815544
O        -0.32917511945005    2.33289861473371   10.43774243477983
O         0.29692405160358   -4.88508266650180    5.53128726737852
O         1.70421399366263   -5.14128958382078    7.33801818104846
O        -0.65632708344046   -5.74794777743685   15.56604133738112
O         0.77536521925582   -5.49783460033105   17.35438850493426
N        -0.46050661521470   -0.80296879126688   10.38771757588370
N         0.82752564219353   -0.88028930147340   12.94541862838679
C        -2.76579701013418    0.22050274276804   12.01326784748464
C        -3.88391681343046    0.39789413507318   12.87049773755926
C        -5.00997923695604   -0.37265057220847   12.64427353893009
H        -5.85240945816635   -0.26031463635571   13.30463603309616
C        -5.12190247135793   -1.29160838011878   11.60253791879980
C        -4.05862305611885   -1.38317401233013   10.71959168838998
H        -4.10720932807685   -2.03289927873529    9.85915800245441
C        -2.90511570326884   -0.63809620883341   10.90322165837575
C        -3.84280241376390    1.46418125219514   13.96206160809912
C        -2.71417691225617    1.17388535624661   14.96035876020928
H        -2.78203900069802    0.15361284783024   15.33482305398840
H        -2.78513132300269    1.85560725980803   15.80662085986078
H        -1.75181915390605    1.32319487448452   14.47392077569078
C        -3.56937166336098    2.82488168803469   13.30286545936433
H        -2.58512637166231    2.81633008453695   12.83342100042496
H        -3.58977577300271    3.61324354664550   14.05359427086457
H        -4.32504111984673    3.04383476347708   12.55019410892181
C        -5.16028867100136    1.56421767992677   14.73933171500642
H        -5.99105182828756    1.80330023090648   14.07923130600300
H        -5.08133020253652    2.36049148267408   15.47722402823662
H        -5.37624494208780    0.63908016975006   15.26937254848966
C        -6.39451995148587   -2.11431773887470   11.46591242575206
C        -7.58833636312166   -1.17234620976007   11.25604846353098
H        -7.71796723075474   -0.50493644279397   12.10322671519134
H        -8.50442158195749   -1.74643841295720   11.13099478972411
H        -7.43486409953653   -0.56628357736661   10.36572317350084
C        -6.60345253513823   -2.93663148559292   12.74562598272332
H        -5.75661040248934   -3.60033802119964   12.90750767207476
H        -7.50508410386248   -3.54044848091751   12.66291583428362
H        -6.70283235555258   -2.29455729933689   13.61611020699101
C        -6.34169992027350   -3.08529041853897   10.28303280466003
H        -6.24273711554032   -2.54957393235029    9.34195216060889
H        -7.26333239754800   -3.66304718833036   10.24528930898912
H        -5.51196226079926   -3.78077724756357   10.38608964323959
C        -1.82163214405873   -0.66770258745032    9.85426344690224
H        -2.04004579002766   -1.49105202391269    9.15280300188936
H        -1.85107789198738    0.27850565057968    9.30070306209164
C        -0.35830966023257   -2.05625615745280   11.13242973102718
H        -0.29187395831224   -2.92404685054548   10.45534090191517
H        -1.27851108949277   -2.16371160264459   11.71488693688114
C         0.84336163792592   -2.05127105848466   12.07181351033391
H         0.86203434157445   -2.98960850384612   12.64978887183186
H         1.76596831053930   -2.01053476370717   11.48511970225176
C         0.51921745645856   -0.70882170178742    9.29047512408123
H         1.52096999838817   -0.71866012562721    9.72522389879214
H         0.35985244745889    0.26598967542596    8.82159058259515
C         0.43266407970412   -1.79281394431797    8.23956269721476
C         1.19782808426115   -2.95735317165725    8.38396313567302
H         1.87974051578433   -3.08552788177058    9.20871657334665
C         1.07332294032904   -3.92794915975386    7.42178734796714
C         1.22891595452343   -5.74312972555804    6.15314459103837
H         2.07296878310293   -5.92824063132030    5.46932728703848
H         0.74302158616362   -6.70176877553247    6.39563725185812
C         0.22160798236024   -3.77327337010190    6.32714232979125
C        -0.52122779735022   -2.63100948484924    6.15934168480666
H        -1.16637292250843   -2.50535412281903    5.30641551682338
C        -0.39705527205035   -1.64532619885588    7.13598475076810
H        -0.95736562648082   -0.73071422006101    7.01690601859454
C        -0.11613988234134   -1.02317855989487   14.06770085464769
H        -1.12134169565487   -1.11750866508802   13.65239578155361
H        -0.06744060074078   -0.08776061038286   14.63125042528528
C         0.14409895257443   -2.18705156392362   14.99660917797680
C         0.98986925349135   -2.04720418442455   16.08892680985182
H         1.43354327428243   -1.08448213253681   16.29147003793006
C         1.27530286737018   -3.10337188920827   16.95139601982639
H         1.93109259508608   -2.98302443213386   17.79695375150472
C         0.67801797552977   -4.30948230489840   16.68055886124850
C        -0.06316193789101   -6.40139970590223   16.66737755257940
H         0.53101127834002   -7.25832592315006   16.31155744821779
H        -0.84988677571170   -6.76468884753750   17.34813745164411
C        -0.18855909118284   -4.46034129696827   15.59723920888781
C        -0.47239999961106   -3.42032617904874   14.74798365751708
H        -1.16471002795708   -3.55052587830576   13.93214207036318
C         2.18179257253140   -0.62296998890613   13.45014660797897
H         2.52608970449463   -1.46366620071286   14.07614390084682
H         2.12531629849994    0.27743512373807   14.07500759056171
C         3.19857397421353   -0.38864746303221   12.36299506290580
C         2.93673563415066    0.60052883576641   11.39274496139742
C         3.98270535899529    0.95044763672332   10.49769170184459
C         5.15290448975988    0.21378714068821   10.53919430784787
H         5.93828001880694    0.45714976229272    9.84470364000227
C         5.38270044404493   -0.82780391640742   11.43581171542920
C         4.39313617250356   -1.08986991944008   12.36865607820218
H         4.53223779776436   -1.84289850952815   13.12930259150261
C         3.83370573566447    2.16393341354991    9.58445312622616
C         2.63012507357038    2.00330809682061    8.64713836368557
H         2.71167526992039    1.07905194241229    8.07671439098841
H         2.59602680071438    2.83703821141354    7.94717964054810
H         1.70711288327525    1.99871023797790    9.22585913009442
C         3.60567914356102    3.39334442948805   10.47602290360408
H         2.68828451396783    3.26460353777549   11.04711698224956
H         3.51716175181073    4.29067532604989    9.86587141281153
H         4.43766347331625    3.52312094175469   11.16626323617069
C         5.07648280852631    2.41891459498734    8.72412300200832
H         5.95596496447962    2.59211838324474    9.34010558375556
H         4.91472646387884    3.30850118673125    8.11810127636161
H         5.26702585389583    1.58620316432894    8.05041849155604
C         6.69751387554871   -1.59084430046558   11.37525426887372
C         7.85928933429596   -0.62038988396026   11.63063324294952
H         7.74297524805491   -0.14485020522488   12.60217898529698
H         7.89704793698799    0.15785082377188   10.87373887357772
H         8.80719166415714   -1.15490939994132   11.61763654426755
C         6.84959048122932   -2.22558095018902    9.98552434016089
H         7.78224207648134   -2.78322125624613    9.92598802431980
H         6.85440020901332   -1.47049466748993    9.20464935106724
H         6.02541905454162   -2.90927342404311    9.79246734058200
C         6.77516427657697   -2.70951909122372   12.41803817343750
H         7.72250992531784   -3.23576983510495   12.31702401730044
H         5.97280017636632   -3.43023396956438   12.27787921882959
H         6.72072515011335   -2.30756634746093   13.42696040784717
C         1.15659603615532    3.05710950721986   13.75238041890073
H         2.18131585422366    2.73824654741445   13.45801147993086
C         1.09548230124189    3.14302976376890   15.28756412209610
H         0.09263596310863    3.43634452589611   15.59089149382209
H         1.81169328106952    3.87203041023695   15.65795897309691
H         1.31841241051366    2.17332239296162   15.72898188165506
C         0.88706509925910    4.43940229387382   13.13834111499979
H         0.87611654384377    4.34273837766302   12.05319631925105
H         1.65498590063298    5.15156515259131   13.43247103743045
H        -0.08567340875207    4.79999628023606   13.47104597246780
C        -1.15411482210843    3.42451261543896   10.21616485697125
H        -1.35349180954531    3.94358588571610   11.17661170756236
C        -0.46171919918565    4.41574718816774    9.26299306404799
H         0.50436611800373    4.70744838676237    9.66927978897153
H        -1.07374759326987    5.30343183144520    9.12403214365079
H        -0.29774105203843    3.93919374712730    8.29833993145982
C        -2.50893534224864    2.99836702115526    9.62262241157728
H        -2.36159817578303    2.56543871089977    8.63379620692993
H        -3.16517192715722    3.86081442843530    9.53103545096634
H        -2.98096328614596    2.26112621769588   10.26944489832607

