33
CSD_code = FUPGON | q = -1 | S = 0 | Stoichiometry = C10H12CoN2O8(1-) | MND = 6
Co       -0.00000479439317    6.44124673738611    1.15530650812074
O         1.21252449687125    6.95711160254292    2.48514508555362
O         3.12839835458292    7.43386387696780    3.45692858231063
O         0.77521228264127    4.71365843627254    1.05350044404679
O         2.62186451038291    3.64336335479542    0.42354350162645
N         1.31080578802780    6.80152934830732   -0.28100310190234
H         1.53567976007400    7.79572928354005   -0.34477082716036
C         2.47700950139116    7.05443305330818    2.49896814051866
C         3.28501139524769    6.72470221870012    1.20156745848218
H         3.69641962729765    7.67496975931460    0.84312887414017
H         4.12307105667362    6.09268666666530    1.50003101412606
C         2.50437122817633    6.03156684165010    0.09930296403274
H         3.16034039568155    5.87289351293673   -0.77268248346257
C         1.95408922199006    4.64702006717561    0.58560417867615
C         0.75232578299063    6.31742221848903   -1.55007252048028
H         0.93872540814783    5.24070602519066   -1.60747450661487
H         1.22920220227896    6.79903040371766   -2.41338490999242
O        -1.21254637656330    5.92536136413096    2.48513302626003
O        -3.12847123560534    5.44890445813196    3.45705489423694
O        -0.77517436574191    8.16884095003704    1.05338131957968
O        -2.62183557781408    9.23913031856903    0.42365000668185
N        -1.31080672426474    6.08096868598445   -0.28101890734959
H        -1.53568740296621    5.08677015096778   -0.34478945948467
C        -2.47700472392015    5.82791738283736    2.49889336444841
C        -3.28501462140223    6.15777823416866    1.20153998654678
H        -3.69645071695070    5.20754124707754    0.84307843163605
H        -4.12305471160001    6.78980910495209    1.50002598101183
C        -2.50436622629457    6.85093324003727    0.09930356914695
H        -3.16033008753796    7.00965889888807   -0.77267577718411
C        -1.95409553665867    8.23541991214575    0.58574505275220
C        -0.75231332025003    6.56507535657353   -1.55008023578590
H        -0.93871251767395    7.64179192085861   -1.60748393901919
H        -1.22918207281847    6.08346536767917   -2.41339571549873

