79
CSD_code = FUPHII | q = 0 | S = 0 | Stoichiometry = C28H48ClPRu | MND = 9
Ru        2.01421595413796    0.73051637797945    7.33654153336506
H         0.72027019157923    1.23850066833977    7.93522393156495
Cl        2.56098100919659    3.01782698933343    7.04689885087874
P         2.87120909015798    0.96842471285629    9.48051961006700
C         1.43858623953820   -1.40243089623105    6.86011208915687
C         2.84684476843879   -1.28075645025040    6.94656277835945
H         3.39201256604858   -2.00096891707425    7.55251458926821
C         3.57006963785025   -0.41789571136629    6.08423665523699
H         4.65127479377019   -0.47394463751605    6.05913683035725
C         2.89193603249015    0.43709063703294    5.20938349882918
C         1.47256448242217    0.39532782119057    5.18404154525358
H         0.93610580723208    1.00905092996659    4.46683960893535
C         0.76295507449251   -0.52310158636852    5.98088349890146
H        -0.31303210624256   -0.61398362277101    5.86300857827807
C         0.70115761578399   -2.50933824750595    7.55778073356444
H         0.48836739133138   -3.31168171255014    6.84734548459525
H        -0.24570816231774   -2.15552673410215    7.96131585207682
H         1.29504877998111   -2.92383694963960    8.37000538946332
C         3.61016564730314    1.27041962281746    4.17277984252563
H         2.93351626945797    2.07419490865741    3.85990169595286
C         4.89463090593528    1.92469661347966    4.67686245715019
H         4.67269839233463    2.55043120458315    5.53909122758053
H         5.31108336515970    2.55608444206624    3.89521184731890
H         5.64677447464626    1.18455836429860    4.94491977996119
C         3.89253968686543    0.37105386046642    2.96201287889546
H         4.56740715710031   -0.43871151270196    3.23703931654769
H         4.35685803759451    0.95086133047822    2.16782585057019
H         2.97143173365117   -0.06497239935450    2.57768917728312
C         2.32682819358436   -0.43722019018852   10.59145566894378
H         2.56866168434877   -1.32224855823174    9.98341586942309
C         2.98395191764217   -0.61732425450498   11.96000912687998
H         4.07147367410622   -0.61784748688877   11.88652929651257
H         2.69431611067862    0.19240619531414   12.62637350078530
C         2.51326219384369   -1.93770565158917   12.57203992863215
H         2.81445996413223   -2.76889973690484   11.92912646818101
H         2.98897904349201   -2.08113864132030   13.54478209675696
C         0.99571370985012   -1.94349099817021   12.73153190809011
H         0.70466643656294   -1.15329747507085   13.42715586334386
H         0.66940130863528   -2.89619566162433   13.15406757620688
C         0.31514424590931   -1.70752660232274   11.38578521094697
H         0.53778730904562   -2.54302267862492   10.71858371536892
H        -0.76768402361328   -1.66771938694367   11.51903249000527
C         0.80898239639063   -0.40473389091898   10.76257556452845
H         0.53744085093521    0.42473387333470   11.41632942304652
H         0.34106546866685   -0.23337034888100    9.78904210709602
C         2.52708285485465    2.60258117534074   10.33079303794248
H         3.15521766118164    3.28556778448249    9.74237041555986
C         2.91608157044337    2.73231021904012   11.80391717019279
H         2.19966294252136    2.18957905922855   12.42239040980598
H         3.91267873356888    2.33395646615663   11.99817094809010
C         2.87419824197903    4.20612293107336   12.20697496526363
H         3.17654661492670    4.31064215726365   13.25203141794485
H         3.58043069798862    4.77038589633961   11.59454532204243
C         1.46997280122326    4.76810646292906   12.01167773548456
H         1.45432932234037    5.82875297480867   12.27045884952008
H         0.77850007819871    4.25139398384361   12.68208642903930
C         1.01572579447706    4.57490134022869   10.56824843897652
H         1.65277002909917    5.15747262723906    9.90072603265206
H        -0.00825939585411    4.93363040300548   10.45047304957659
C         1.09177707458606    3.10470729531711   10.16259755204626
H         0.40568327595115    2.51948276136627   10.77608272751972
H         0.78914804887574    3.00285383300274    9.12010245478079
C         4.73820362169235    0.92009343120738    9.63682333291027
H         4.97860268928175    1.19867544821963   10.66950942256812
C         5.34539900433503   -0.45287267973822    9.35010186487825
H         4.90824902017181   -1.22219312223247    9.98824364915323
H         5.14868498565251   -0.72240158917084    8.31284595574952
C         6.85798082111911   -0.41598513060976    9.56325108403839
H         7.28142974610615   -1.40559260361415    9.37418533459210
H         7.07281829032700   -0.15545951007454   10.60265778297635
C         7.50066671392330    0.61297171033108    8.63927178540394
H         8.57822543707664    0.65027857389018    8.81290076167361
H         7.34215642842695    0.31580757406006    7.59974826799803
C         6.88263992365611    1.98758087577458    8.87166664309495
H         7.31200438304199    2.71144814353591    8.17659698360204
H         7.11450126252452    2.32048202485593    9.88660674321512
C         5.36853022024570    1.93978338874647    8.68845352618634
H         5.12970078186163    1.65974421932261    7.66055435162602
H         4.95114500403035    2.93350426226364    8.85101460722879

