54
CSD_code = FUPKIL | q = 0 | S = 0 | Stoichiometry = C23H25IMoN2O2 | MND = 9
Mo        3.23916211610751   16.05796576378751    2.26586670014494
C         2.81745619618345   14.54599578151054    3.72403371529237
N         3.15750310433019   14.47627539443364    5.02628080940806
C         2.58430240048121   13.37906105608021    5.61099972367610
H         2.72233328278922   13.13997953470736    6.64509506794164
C         1.88264978597982   12.73849811553159    4.65239604762155
H         1.31100402040040   11.83619355155234    4.70226717149765
N         2.03867843675808   13.45981505728867    3.49545638219096
C         1.67680443620177   12.96284396225579    2.17377953069528
H         2.61880938225422   12.87785368797488    1.61162205172338
C         1.06294306794335   11.58523605687746    2.24778805375992
C         1.81156274835867   10.48275699699282    1.85631701378441
H         2.83118902369796   10.61877532781524    1.52535758331861
C         1.26261585405707    9.21250012237111    1.89098784810401
H         1.85527551673494    8.36476376410903    1.58212295833314
C        -0.04086436866835    9.03092340757976    2.31923290069134
H        -0.47093968754518    8.04100866033703    2.34531846235575
C        -0.79263178972110   10.12421524218902    2.71599224685215
H        -1.80933879899679    9.98897942987927    3.05435883981557
C        -0.24542436674496   11.39406192793898    2.67998037595771
H        -0.84041467889063   12.23747786966960    2.99939454682376
C         0.75136282587306   13.93806138013304    1.41684430431311
H         0.37196031877035   13.41872952332021    0.52970984869120
H        -0.10417668497961   14.19524199094396    2.04486859699086
C         1.49069035279364   15.17752833292814    1.01722213309787
C         2.58027105625504   15.22552759048862    0.11724730360775
C         3.00739812225995   16.58575775380299    0.01527457834709
C         2.12410284282052   17.38527922439538    0.79155987025963
C         1.19149644163526   16.50752540932952    1.43897721097932
C         3.03574208534063   14.13473282461733   -0.80533121300733
H         4.08765186342684   13.88282973199870   -0.67077935256838
H         2.91057923858085   14.47319089943035   -1.83621761701213
H         2.44750575853655   13.22824459101616   -0.67135876492230
C         4.01975226403709   17.07643957781081   -0.97517979796482
H         4.84614793047227   16.37239921886469   -1.06666911667999
H         4.42583424024672   18.04236561288354   -0.67941453257373
H         3.55758559871541   17.18768377286615   -1.95980185963309
C         2.03777425110916   18.88032133769312    0.76384317268478
H         1.35726903694270   19.19924205026746   -0.02952792008500
H         3.01334818794740   19.32578884594042    0.57457131585841
H         1.66532259104075   19.27301177184526    1.70918660620966
C        -0.04030771737159   16.94283036601862    2.17423793126044
H         0.12031628565798   17.90133253371846    2.66434002196964
H        -0.32846018079896   16.22247118801247    2.93971717117813
H        -0.87345848887174   17.05463680074055    1.47582206138508
C         4.09132398967870   15.32220833544824    5.72068497895678
H         4.87408973194517   15.65286282723341    5.03284560702057
H         4.54765017269665   14.75123514333112    6.52851110082359
H         3.59860323423441   16.20009870407117    6.14265764182576
I         5.46409287412220   14.24367704345443    1.98424087040832
C         4.63048139266157   17.30751241898472    2.74418636607429
O         5.38810953688307   18.13092929596447    3.03737280511009
C         2.86902874180490   17.19791428757219    3.75514784303869
O         2.61593642381988   17.95630890399320    4.59486280436609

