81
CSD_code = FUPMUY | q = 0 | S = 0 | Stoichiometry = C40H34Cl2NiO2P2 | MND = 4
Ni       -0.00018673582367    0.00004666857420   -0.00009156877594
Cl        1.63328634209385    0.82533291589261    1.09805333451692
P        -1.02004398580600   -0.01774814635895    1.89025818910399
O        -1.04786559651171    2.18890131756169    0.14352567833037
C        -1.06544005449308    1.74374407982658    2.47869998122376
C        -1.07923584837668    2.65013046487157    1.26949152019690
C        -1.12902197604483    4.11011669449872    1.48944450161078
C        -1.17135283625401    4.93873919676972    0.36570710122667
C        -1.22748882231434    6.31068732848890    0.50583645403575
C        -1.24093828414560    6.87577133053159    1.77126849643028
C        -1.19368946021767    6.06306489924865    2.89318194056414
C        -1.13800726258844    4.68842415091802    2.75871516990175
C        -2.78027157618344   -0.47737297402876    1.96122620148213
C        -3.13271732006787   -1.77382834575419    2.32180244592523
C        -4.45902835912523   -2.16226233131709    2.31437907710350
C        -5.44305160731889   -1.26613484126570    1.93022343607437
C        -5.09507180947986    0.01635442252759    1.54023556667663
C        -3.76939938045367    0.40884224602953    1.54781466302499
C        -0.35829664413087   -0.86158718891716    3.35671345396870
C         0.75125565937460   -1.68566032019187    3.22708685188277
C         1.25845386010462   -2.34175039011878    4.33534117154241
C         0.65834156138932   -2.17867112018284    5.57224193324731
C        -0.45489964793184   -1.36245317097774    5.70241141604364
C        -0.96588606415541   -0.70643474935592    4.59868608089051
H        -0.14031693263131    1.92004974710323    3.03568301167059
H        -1.92307328990200    1.92927589161198    3.12975593946129
H        -1.15575157976807    4.47938292364479   -0.61151048608970
H        -1.25983156964743    6.94274907152071   -0.36914158376600
H        -1.28590888419256    7.94889554191683    1.88426291058242
H        -1.19802327010968    6.50487839685738    3.87853188438026
H        -1.09409905232469    4.07233592005390    3.64322617564795
H        -2.35965948090971   -2.47427930449624    2.60768296871234
H        -4.72660786939159   -3.16894078849159    2.60156690789522
H        -6.47926132536421   -1.57131520810166    1.92162788814382
H        -5.85891719042422    0.71078514233246    1.22109164470834
H        -3.50124382247625    1.40225297975544    1.21524126202338
H         1.21168604738497   -1.79717871303403    2.25564201863425
H         2.12414136555750   -2.98023554250102    4.23517878108552
H         1.05449727615727   -2.68877093747301    6.43839897862434
H        -0.92545964498083   -1.23971470460943    6.66751183291934
H        -1.84358566690274   -0.08161369806894    4.69615329909832
Cl       -1.63288106068748   -0.82596686200647   -1.09901835356005
P         1.02058842611898    0.01793585491203   -1.89005269765645
C         1.06557197700743   -1.74352145214800   -2.47878154362248
C         2.78083626759745    0.47729054443435   -1.96141364587644
C         0.35878025305927    0.86171983355946   -3.35651429905456
C         1.08067303412604   -2.64988122736917   -1.26959111735192
H         0.14050127134564   -1.91996937346908   -3.03587147150523
H         1.92316060918468   -1.92889089574299   -3.12991322850539
C         3.13331093395687    1.77364472034554   -2.32232987606238
C         3.76991007731709   -0.40885683736179   -1.54774379138224
C        -0.75051909374357    1.68612885802098   -3.22700656930993
C         0.96618518941852    0.70603946266559   -4.59852628963396
O         1.04926896089159   -2.18848568579826   -0.14365897551577
C         1.12814763173881   -4.10993906017989   -1.48939370696684
C         4.45962316108013    2.16205675327637   -2.31498013245642
H         2.36026449186961    2.47402130014937   -2.60840809703701
C         5.09559136428039   -0.01635946148879   -1.54021074670254
H         3.50174392441845   -1.40215707495582   -1.21492510594281
C        -1.25764625478524    2.34201886337731   -4.33542317094136
H        -1.21081056775462    1.79808016260913   -2.25555731682766
C         0.45527303647277    1.36184157506566   -5.70240619528409
H         1.84374464652219    0.08099823840089   -4.69585704603855
C         1.17029315446364   -4.93836407451159   -0.36542525141763
C         1.13637499540755   -4.68850963001937   -2.75858902874361
C         5.44360638270610    1.26600899129629   -1.93054132244976
H         4.72720887368930    3.16865564302121   -2.60244417882002
H         5.85941513088927   -0.71068550494539   -1.22080938944654
C        -0.65774923642980    2.17838453687250   -5.57234884729313
H        -2.12314493841658    2.98078429258545   -4.23539174377084
H         0.92573790228687    1.23871629935348   -6.66751067586141
C         1.22626467565937   -6.31036558079800   -0.50531050445110
H         1.15574172807160   -4.47885054960935    0.61167647529676
C         1.19157785410095   -6.06318229674419   -2.89270400411458
H         1.09258532269170   -4.07257148824470   -3.64319831641659
H         6.47981713310677    1.57117361371579   -1.92196690280354
H        -1.05388689411474    2.68831693125404   -6.43861171349634
C         1.23920330379668   -6.87570015249020   -1.77065537249315
H         1.25879419608579   -6.94213746493028    0.36984701141047
H         1.19529694235484   -6.50535902270712   -3.87799175982639
H         1.28351593261166   -7.94887163473385   -1.88359762802607

