84
CSD_code = FUPMIN | q = 0 | S = 0 | Stoichiometry = C33H46IrNOP2 | MND = 6
Ir        1.64133499227052   -0.20921926301479    2.59536252517325
P         3.39135500340509   -1.73005969779475    2.29563944293636
P         0.50738649388687    1.81506224152412    2.80351061593027
N         3.21112965449598    1.13849602964375    2.19991963359464
O        -0.74247350500716   -2.02122143298206    2.88214184281748
C         4.26936608774787    0.70620124417674    1.45172949177736
C         5.04464743295764    1.54255544992617    0.62748972066694
H         4.78035583620976    2.58588015512489    0.53588215381574
C         6.09610542681612    1.04480770651009   -0.10494402991215
H         6.66579315645245    1.71598042933611   -0.73281773423879
C         6.43321075296053   -0.30808074302182   -0.07617258589872
C         5.63474866710377   -1.15706606072877    0.67047365559566
H         5.84263145499446   -2.21835539163164    0.66080246627754
C         4.56388999196142   -0.67377985723797    1.41336536910099
C         7.60785411155315   -0.82245766721962   -0.85360911221109
H         8.53896560553213   -0.56896691403504   -0.34484970728855
H         7.63905302890428   -0.37516113291197   -1.84555615816965
H         7.56198270491892   -1.90402773336841   -0.95847770664001
C         3.14013135005265    2.42709555014628    2.65058128991660
C         4.25988987284934    3.24387250347236    2.89187999018911
H         5.25174632551572    2.84774691582509    2.72806959492322
C         4.11850857492270    4.52058434394333    3.38602241352912
H         5.00503191223356    5.11312316041275    3.56606663522396
C         2.86858935345843    5.06105388885082    3.67794668414943
C         1.75763024986114    4.25147130879671    3.50157326905361
H         0.78158967410114    4.63546806252024    3.76566965068613
C         1.88208606665167    2.95945878272944    3.01224030226315
C         2.72552088211956    6.45189242070588    4.22109707674224
H         1.87865796000570    6.96122445035510    3.76379783174791
H         3.62507795077628    7.03362392491954    4.03500824219258
H         2.55600566226724    6.42331843530101    5.29850131032545
C         4.36823214232404   -2.33651358948254    3.77515510140181
H         4.46360261692688   -1.42267777693097    4.37768013580704
C         3.59442878912357   -3.36339874597422    4.59541216826304
H         3.61560532256555   -4.34061059396373    4.11705787169819
H         2.56139358906779   -3.04778477907991    4.72996638097178
H         4.04596982630002   -3.46214261540428    5.58162177299825
C         5.76964074811176   -2.84274159732704    3.45288538208467
H         6.26963061110136   -3.11613430601813    4.38122457190103
H         6.36283792025258   -2.07446099775215    2.96326277663639
H         5.74080949052864   -3.72717081754098    2.81890644547845
C         3.16400082279078   -3.21807837196955    1.18781498506243
H         4.06220497352728   -3.83939193696883    1.29263916056121
C         1.93787044854865   -4.01989732337803    1.61749856224479
H         1.03834691834230   -3.43990640432037    1.42275881893713
H         1.95893934815122   -4.27190400441351    2.67356968501665
H         1.87775601050546   -4.94450465263287    1.04454822389489
C         2.99477016141050   -2.79528002749124   -0.26827601200157
H         2.77718652385763   -3.66788497052363   -0.88238342835653
H         3.88501705942945   -2.31048080326896   -0.65910916068042
H         2.16363791939446   -2.09797654708224   -0.35320026974147
C        -0.70736605929993    2.23175221703808    4.15155340772635
H        -1.05670508804343    3.24983471417822    3.94587156168883
C        -1.88604432641382    1.26663714506738    4.07772286254039
H        -1.55407404060878    0.25681297868223    4.30998336169316
H        -2.33159918384511    1.25820309838535    3.08401847029922
H        -2.65275852244029    1.54787092571352    4.79832971385493
C        -0.06942900362412    2.21278722677773    5.53514057716569
H        -0.76659147624316    2.61866846570484    6.26731763783862
H         0.84117244323554    2.80829645576811    5.55749020988092
H         0.18463873443542    1.19871147149966    5.82943752833472
C        -0.35451612430261    2.41462782706124    1.24247011151124
H        -0.97907407799838    1.57300844550669    0.91658243819301
C        -1.22212500922626    3.65899478723989    1.40681805346512
H        -0.64403712511153    4.47876977558357    1.82895828128907
H        -2.09423707516371    3.47511529408580    2.02931409466557
H        -1.57704404483241    3.97414249769700    0.42615023329284
C         0.71217970820615    2.66963228408113    0.18028842542202
H         0.24684677138786    2.83798890793322   -0.78941734241159
H         1.38266390389678    1.81716275602841    0.09501785811093
H         1.30171285209846    3.54791755228069    0.43907679791160
C         0.19333936742841   -1.34973997225094    2.82383875882315
C         2.09246575809811   -0.16143142426240    4.67572745174187
C         3.17236966992076    0.53804536325390    5.21551515249739
H         3.81096683458253    1.13361216961269    4.57861859598618
C         3.48496586007513    0.51266632686227    6.56562612399564
H         4.33236152820674    1.08146229847011    6.92576568459494
C         2.72708473443178   -0.23588214416613    7.44532916981633
H         2.96846928474502   -0.26258651135093    8.49864720480914
C         1.65387971905335   -0.95202518337859    6.94909348986520
H         1.04447086418495   -1.54907083771070    7.61482610461966
C         1.34825845315018   -0.90886493645949    5.59799886924191
H         0.48945578141875   -1.48316934932652    5.26988690863836
H         1.38951491437931   -0.25573087432638    1.03212485646930

