38
CSD_code = FUPQOW | q = 0 | S = 0 | Stoichiometry = C12H12Cl2N2O9Zn | MND = 5
Zn        5.02449925167321    4.98786655989958   -0.09567191867547
Cl        6.96284883317803    6.98140429129187   -3.09944408262034
Cl        3.93113531491002    5.34457360738731    2.11880267067227
O         5.50659887588785    4.72983042206802   -1.88048860615500
O         4.24069730885968    6.98349489866723   -7.50839313148805
O         2.70844594151285    5.48065396909906   -7.35607430184674
O         6.48678635003057    4.52197763242836    0.98394584077076
O         7.48120513735416    4.20914583455462    7.08279740223986
O         5.43324852136735    4.86613206867557    7.07503610241983
O         5.69317882880341    7.03038018957099   -0.24975495165762
O         3.07306325087337    5.67663911279682   -0.75984991962215
O         4.42986721759811    2.88631058843479   -0.16668297115918
N         3.66338241469463    6.09241935530208   -6.91541378344312
N         6.45970006967736    4.53755447716183    6.51117667307633
C         5.05502934660942    5.05920883981947   -3.04248772065798
C         5.64062869027188    6.10656210203119   -3.80486129249742
C         5.20303026774373    6.44308842179851   -5.05927505901872
C         4.13088841590073    5.74438665492085   -5.61453507870904
C         3.51420509045708    4.71788099983817   -4.90171813519218
C         3.96338307224195    4.39008389436665   -3.64729119484144
C         6.47464981389323    4.53131132265036    2.27419889099802
C         5.32994452604574    4.89973191697965    3.02491290989353
C         5.31146785900104    4.90620870212584    4.39619845518185
C         6.46546533310724    4.53694277006406    5.08470372202590
C         7.61743709903106    4.16887814298046    4.38795025459753
C         7.62085439944111    4.16649205580203    3.01739405244513
H         5.66472820700931    7.23820752787544   -5.62512546368659
H         2.68676986261630    4.19359675244792   -5.35498409320699
H         3.49416763480424    3.58883642878467   -3.09328161052744
H         4.42933877833295    5.18839264136459    4.94980287714085
H         8.49594347063867    3.88883697864082    4.94882208384167
H         8.50224335239915    3.88484873312607    2.46391834917269
H         6.11717673799722    7.05716385865981   -1.13256778304890
H         6.41201442830685    7.17482230317257    0.37521397533370
H         2.84952622235485    5.40217491049583   -1.65599374224090
H         2.94545294186184    6.62859042431912   -0.70585779634931
H         4.82470536010107    2.69734607124079   -1.02816939025584
H         4.93299177340102    2.37112453915648    0.47334776708728

