81
CSD_code = FUPREP | q = 0 | S = 0 | Stoichiometry = C25H52IIrP2 | MND = 5
Ir        9.88270425659791    3.21403995873046   11.56430012126674
I         8.83794997773707    4.34129508829009   13.80434225495886
P         9.20345564687279    4.90361262400587   10.04083634619969
C        10.90469035686771    2.50074319340762    9.88703351719878
H        11.84557298184412    3.08562725037932    9.91843576918676
P        11.16134524331365    1.54439042646854   12.67258823798212
C        10.23306799284704    2.83008079412609    8.55565511061460
H         9.26775216701173    2.31886954028036    8.50163696879031
C        11.07780921974412    2.36253048624865    7.36421147113799
H        10.54688714747840    2.57405793952557    6.43206727083374
H        12.01955629566158    2.91975376801054    7.34342190203611
C        11.38249558662931    0.87375461905284    7.46748925613208
H        11.97989003374614    0.55347915135073    6.61056339829342
H        10.44834714836435    0.30725157430094    7.45714651396792
C        12.13437986094586    0.59430934016802    8.76235507985454
H        13.08221655721842    1.14131036998765    8.75184240712255
H        12.36729419870570   -0.47120892712640    8.83953590688212
C        11.30493314278893    1.02985964740154    9.97624594535995
H        10.40301176629912    0.41212493755953   10.00227642247099
C        10.02583414579174    4.34164061261962    8.48293426857335
H         9.46828355539693    4.64068522153319    7.59411932502585
H        11.01253045057071    4.80863684966187    8.42993266963796
C        12.11155680388247    0.82871590798076   11.25765140159656
H        13.04319854411517    1.39082682891112   11.15449840827262
H        12.37138305770024   -0.21770803414190   11.42496991706742
C         8.15313369020233    2.03150086914380   11.33893714595796
H         7.26833608022113    2.66072547674456   11.24550168157333
H         7.99094814581450    1.41481468471756   12.22262438875141
H         8.20461422496665    1.37793545823934   10.46658110783521
C        10.06934948681760    6.57475028626917   10.35486594686408
C        11.40065700257949    6.18023113818259   11.00145426828944
H        11.21773577474285    5.67414346996261   11.94693262364589
H        11.99935261577300    7.06507855895942   11.21647351773665
H        11.98993184737275    5.53164170499094   10.35311175226570
C        10.37157311453156    7.42087584010861    9.11582439953300
H         9.47345349271214    7.81650309906142    8.65599528853362
H        10.93133704934401    6.87231180848972    8.36241626099546
H        10.98297933596623    8.27011472270027    9.42279396999663
C         9.29049591656613    7.41944839827803   11.36372935738771
H         8.41188047502527    7.87421225462714   10.91462070885724
H         9.92589600766718    8.22562314069466   11.73034021888354
H         8.97892384176366    6.82610529565609   12.21970980519397
C         7.41791382107981    5.24137293266655    9.47286692413937
C         6.92952642292637    4.01089039432443    8.69915814152144
H         7.15481743536014    3.09130676262222    9.22643628353634
H         7.37750868709052    3.96126130908825    7.70926233162592
H         5.84945411046301    4.07160302748850    8.57012646207053
C         6.54401689253101    5.44017512286654   10.71241216409923
H         6.64435811283053    4.60765433608254   11.40226695613140
H         5.49735473397694    5.51674782763312   10.42041627323798
H         6.80988401435011    6.34578647155425   11.24844639274013
C         7.26497419966609    6.44877759937576    8.54827275675959
H         7.95619825601611    6.40322566000052    7.70890588560101
H         7.40358670105914    7.38639376338729    9.07810823063951
H         6.25304632793396    6.45133942529323    8.14287602459491
C        10.46302287562806   -0.00550905523990   13.53330699519795
C         9.77789524796913   -0.86660373523547   12.46553025335508
H         9.11202419415100   -0.27964955212740   11.84439173633136
H         9.18933731471068   -1.64344188832297   12.95245118532129
H        10.50710592854457   -1.35824600013927   11.82561430766896
C         9.42657380185268    0.43805035720106   14.56749806499445
H         9.89045268300923    0.95143668779498   15.40369084162424
H         8.89702943673560   -0.42990335680535   14.95851400434047
H         8.69671644835989    1.11250705387483   14.12977140315208
C        11.50988041879739   -0.88613117637067   14.21562615142661
H        11.93041138647429   -0.41328594905483   15.09787279831706
H        12.31365537107073   -1.15814771243185   13.53403132450179
H        11.02841352765114   -1.80874549674587   14.54036790399166
C        12.55992696094197    2.25842240681340   13.75767616872439
C        12.87314396784200    3.61768127193538   13.12441608502165
H        13.09332550537452    3.52872232914831   12.06009315169227
H        13.74042583286746    4.07099139929414   13.60398801181370
H        12.03401302399207    4.29435088746852   13.26773347186259
C        12.08085732018287    2.51237970963876   15.18750552811499
H        11.10794810129439    2.99771587848061   15.19647945987007
H        12.78607442337040    3.17125846232834   15.69414023473146
H        12.02073702969044    1.59317545722604   15.76336973991524
C        13.85334063032694    1.44041835973206   13.79248403771652
H        14.29552780863434    1.32555463891518   12.80580029744008
H        13.71253334659395    0.45570815766595   14.22223608811100
H        14.57634345801167    1.97006085705929   14.41365359517100

