71
CSD_code = FUPSIT | q = 0 | S = 0 | Stoichiometry = C34H27BN3OPRuS3 | MND = 6
Ru        2.37967391390902    6.84896616803660    4.13868683507069
S         3.45302473898618    5.49674176617978    5.87832509675673
S         1.65653986375476    8.62656380213823    5.76376475135453
S         3.69787213045556    5.76205649765377    2.44261350265252
P         0.50359788227936    5.43644263492736    4.07625524594981
B         4.09091442382055    8.00494552722315    4.41579909890516
N         4.66423906183056    7.84599243968318    5.88928252261753
N         3.70049654768494    9.50168885737057    4.31124276945034
N         5.29751702908806    7.63715660064983    3.47462007311761
O         1.43280158946050    8.82564478171826    2.11872942508227
C        -0.89330497564100    6.15949402566781    3.16612149911664
C        -2.08381790023730    6.54560543910473    3.76736626863312
H        -2.23873208739483    6.36645746365547    4.82228148612119
C        -3.06601021873084    7.16555774198192    3.01300162478653
H        -3.99183974804730    7.46593688573213    3.48261512326201
C        -2.86502027240733    7.40482652772779    1.66467940228119
H        -3.63411943441504    7.89019529977113    1.08139129626383
C        -1.67252978552089    7.02990820089618    1.06291429837049
H        -1.51136004211078    7.22444935745479    0.01246812978745
C        -0.68808394217450    6.41686928806723    1.81098855753582
H         0.25505359677104    6.12863046356115    1.35917087791169
C         0.71918754875123    3.83028846207551    3.23372120824110
C        -0.21249208621423    3.27858197289954    2.36070516806900
H        -1.12083510240995    3.81605317240209    2.12495710007685
C         0.02617102268387    2.04218805836381    1.78731450914965
H        -0.70006998056897    1.61883801769934    1.10778597448566
C         1.18756799814520    1.34713326532597    2.08076202586300
H         1.36868495042521    0.38307174184344    1.62768552178240
C         2.11639319314857    1.89057160205210    2.95306424785891
H         3.02418347013063    1.35211651739252    3.18320569736749
C         1.88384293744781    3.12631497361044    3.52572821227983
H         2.60974475743231    3.55731209184912    4.20453136394458
C        -0.28407116503877    4.87879704397920    5.62565866826213
C        -1.15076929918964    3.79029419053793    5.66159183666168
H        -1.36316428010631    3.24044097420462    4.75540257376101
C        -1.73544915585246    3.41436684593715    6.85615299695609
H        -2.40844186072926    2.56913569198780    6.88188134862056
C        -1.46096786028620    4.11650287043741    8.01968169369933
H        -1.91956579087446    3.81661674140596    8.95096196131603
C        -0.59870099533696    5.19917053716797    7.98802483591301
H        -0.38266836340006    5.74831121874710    8.89292464313867
C        -0.01034969866247    5.57853584870594    6.79490117949171
H         0.66533715997967    6.42557458332060    6.76442820556823
C         4.48848155434755    6.65467399926527    6.52493381292972
C         5.14241422268122    6.41405773287947    7.75355593859834
H         5.00773793679902    5.44300205652472    8.20162947263821
C         5.87113054657866    7.39939578817809    8.35151532619326
H         6.35653970394676    7.23427332768727    9.30087377318837
C         5.95777362643796    8.65363934141097    7.72163978210205
H         6.48568887225942    9.47213931003407    8.18182691973256
C         5.35521619364372    8.82112929096224    6.50734941162105
H         5.39438206715397    9.77856090316317    6.00574575453343
C         2.63079021350506    9.84940112893224    5.08751107190935
C         2.30805652035464   11.20063321104438    5.26297304708317
H         1.49892208445393   11.43939933765216    5.93346274306835
C         2.95975146732034   12.16380690427017    4.53248461170160
H         2.68955231117121   13.20375145154050    4.62754819950110
C         3.95410931811872   11.76957714998406    3.63073345658266
H         4.44982906012407   12.48666670951557    2.99794863916019
C         4.30595116744289   10.44462589530817    3.57251125461265
H         5.08546270930254   10.10412195098200    2.90693916936401
C         5.13716203482800    6.64116953516680    2.55821676013799
C         6.21153382581458    6.30051725031399    1.70383836900998
H         6.03283080504931    5.51978342418882    0.98299340534154
C         7.41547938317010    6.92944804216768    1.81346309568944
H         8.24084495470552    6.67162439789486    1.16850877319223
C         7.57204051784367    7.91899985381848    2.80305501528808
H         8.51386195401240    8.42316838165605    2.94168546093495
C         6.50346681199380    8.22919150533733    3.59229067430387
H         6.59587280908050    8.97113500011092    4.37107832887803
C         1.74913755704974    8.00986092886119    2.87429887512277

