53
CSD_code = FUPSAM | q = 0 | S = 0 | Stoichiometry = C24H18FeN8O2 | MND = 6
Fe       -0.50959468493407    7.84856892657077   10.73442700755828
O         1.30441576255674    7.97532477485439    9.87180446010183
N        -0.50418564794714    6.06124347332126   11.07260512039178
O         0.27473093604634    7.83925829181264   12.58760837137792
N        -2.25976706558979    8.34549718628717   11.45941695023774
N        -0.42095598586904    9.64034405311041   10.43286489436258
N        -0.03677515307368    5.61706147528203   12.23780208703404
C         0.36306644094467    6.63952416023913   12.98300723801777
N         0.66721954190983   10.15515144508605    9.86338834592401
C        -2.46887195848362    9.68910500508108   11.42894161011487
C        -1.35926118824555    5.88125442696016    8.96907250090949
N        -1.29083028272723    7.23749322972779    9.04547897824029
C        -0.90638081089431    5.23025771418007   10.14555072407880
H        -0.86747983325838    4.15747767842961   10.26814532250603
C         0.91616194806201    6.33511157791711   14.31625708447221
C        -1.67572519144019    7.95438384898931    7.99926416478477
H        -1.59713814506376    9.02711566718357    8.10701011796095
C         1.54016249658686    9.19020144539065    9.60355986707096
C        -1.83055136082426    5.24270547984760    7.81396554595210
H        -1.86769440859552    4.16534054241613    7.78734927318367
C         2.81605590073250    9.57829898067153    8.97291386753842
N         1.95308842928392    5.79794997405136   16.83521284321265
C        -3.63669090092099   10.25360855600019   11.95963306987610
H        -3.76762753404864   11.32326313606715   11.92087830954475
C         4.95126347996263    9.01341204382079    8.07354472211142
H         5.72231519443280    8.29795132278740    7.81757333946447
C        -1.40198615249872   10.40869285085845   10.83150341703609
H        -1.37609506229072   11.48443451128282   10.73362235199720
C        -4.58571406248374    9.43200305366857   12.52585787654239
H        -5.49126018577817    9.84363206575168   12.94505674748047
C         1.36373504229510    7.36645037533610   15.13887012092118
H         1.30934193087200    8.38728532826689   14.79496547248431
C        -2.15028156743801    7.39166393027096    6.82847922967092
H        -2.44864337669915    8.02208221873981    6.00711319238593
C         1.87166220200184    7.03876962131723   16.38480166742099
H         2.23249665933570    7.80370755722027   17.06037859823017
C        -3.18311663513899    7.56975101080816   12.00923023896211
H        -2.96795104671748    6.51041908113328   12.01462626609032
C         1.00309377174223    5.02628663651653   14.78615338769107
H         0.66640359602766    4.21208450967620   14.16656950233215
C        -4.35734891261859    8.05809199559864   12.55265383370936
H        -5.07373027352992    7.38196913815630   12.98936519516680
C        -2.22728599317186    6.00376912840094    6.73707975789756
H        -2.59003248681513    5.53486580193053    5.83500838511655
C         4.31971099352575   11.19310605580254    8.07347540140606
H         4.59119754884751   12.20897031489932    7.81658407418410
N         5.22507955196874   10.27357042962374    7.78028133655045
C         3.10199062462864   10.90741288903251    8.66775904501121
H         2.38298112188142   11.67569879103505    8.89773082251508
C         1.52890554675153    4.82049527215470   16.05061105611323
H         1.61802301533380    3.82354811154668   16.46284933342577
C         3.76789323246904    8.60798517760374    8.66771176750738
H         3.56998093889513    7.57304972727889    8.89808610612265

