129
CSD_code = FUPZOG | q = -1 | S = 0 | Stoichiometry = C72H52O4Y(1-) | MND = 4
Y        -0.06124158898664    9.52371099509656   18.60719903156881
O         0.57805500700487   10.39413300119068   20.30900916167305
O         1.60811118297454    8.54210111071745   18.03459821573607
O        -1.79547568251376    8.59996785337680   19.08234006385008
O        -0.64714629771827   10.96146640148908   17.35316596030225
C         0.09606939327351   10.71328609579687   21.48306906025791
C         0.64386227903892   10.15614556010133   22.67351676896988
C         0.11925048767611   10.49941322433910   23.91168368633607
H         0.56564688470055   10.07608964737581   24.80201009661156
C        -0.92884323047785   11.39345211059764   24.02722914517446
H        -1.31325954158179   11.66392393450851   25.00097407078836
C        -1.47126694225188   11.94738355940688   22.87997603364906
H        -2.27644331140160   12.66746819329194   22.95405141601503
C        -0.98343337788985   11.62388581900412   21.62307427854128
C         1.77237931194572    9.21581446542037   22.59727886969146
C         2.85561485210597    9.46523098579994   21.75512334075196
H         2.86176469013777   10.36890003360150   21.16471816055485
C         3.90745195214907    8.57345224210332   21.67500720761623
H         4.73511575816709    8.77409001202263   21.00967051545657
C         3.90014175043468    7.41684263423752   22.43662026305294
H         4.72081550319895    6.71732015086569   22.36690263618676
C         2.83294718363395    7.15911378357351   23.27959033706933
H         2.81664215614827    6.25320815690665   23.87076236188360
C         1.77958361782806    8.05005467304358   23.36147167353976
H         0.93889248454663    7.83088696003539   24.00504292520806
C        -1.57227985280300   12.28199652378785   20.44278815238220
C        -2.95482521194229   12.30371422189641   20.26082756045647
H        -3.58830760099170   11.74050600819444   20.93090349112114
C        -3.51680913342778   13.02762452651575   19.22596544577103
H        -4.59026969565263   13.02590293009292   19.09001995997306
C        -2.71010781808017   13.75276645154791   18.36307113565575
H        -3.15081995080853   14.32169819375681   17.55596644206792
C        -1.33705456217424   13.73446540101060   18.53234379025579
H        -0.70422137213367   14.30305839573745   17.86681021255492
C        -0.76788373596610   12.99624173725464   19.55583751103072
H         0.30319605395837   13.01346783491892   19.70354755899608
C         2.72850467467057    7.93118574464026   18.31519240085806
C         3.96981865550914    8.39502894842573   17.78890112022531
C         5.14973721527613    7.71918763059735   18.06463956154092
H         6.07321865910726    8.09398830473322   17.64194004734077
C         5.16436618671089    6.57056276078885   18.83303867261399
H         6.09236962811485    6.05267456327091   19.03115651123682
C         3.97098910575080    6.09813680375487   19.34323526794075
H         3.96791387094178    5.21214591547745   19.96410119381142
C         2.76845027945593    6.75252085970371   19.11253681145803
C         4.05018321609059    9.59020341462473   16.93248835982671
C         3.17617659215623    9.76975343169245   15.86317651835944
H         2.40613861922559    9.03508900118029   15.69335358919353
C         3.29191547483592   10.86588893022142   15.02926771525072
H         2.60410127809537   10.98704436211630   14.20408846014258
C         4.27966894883668   11.81034065088529   15.25151858487670
H         4.36619740212275   12.67205718403237   14.60456477771178
C         5.15079333464087   11.64851447646436   16.31476787025390
H         5.91784209278810   12.38815177190245   16.50155978519474
C         5.04018704122547   10.54856599233708   17.14455865085171
H         5.71900623972528   10.43718165090041   17.97896233532528
C         1.55794548173145    6.18263482560343   19.72394357082537
C         1.34413938742532    4.80333619855700   19.68949718274123
H         2.03992181958210    4.17507576310859   19.14959709305229
C         0.25482992406238    4.23447350253052   20.32087227650512
H         0.10164917407979    3.16443759451818   20.27141300242494
C        -0.63451191834712    5.02905282520415   21.02361516401375
H        -1.48262890092476    4.58724768223253   21.52602196953275
C        -0.42890773254330    6.39667465341426   21.07629738233025
H        -1.10200481843228    7.01401132754221   21.65232922362301
C         0.64361714079763    6.97360004270492   20.41737724221359
H         0.82510883705555    8.04099213417051   20.50748393667066
C        -2.37546459775275    7.43710203955287   18.97522525455365
C        -1.92383970357176    6.43511932434373   18.06900389024861
C        -2.51694171638611    5.18093703742213   18.05088594626208
H        -2.14658074536513    4.44038937905396   17.35471000445163
C        -3.58477616712626    4.87628983867614   18.87276560211090
H        -4.03307919442720    3.89327466216501   18.85035299376367
C        -4.08377889328593    5.85769704163524   19.70805475279760
H        -4.92753000877624    5.63639716200665   20.34890021948039
C        -3.50965911835751    7.11922065671504   19.77373199672116
C        -0.85483133130699    6.71263106504088   17.09671573571208
C        -0.89336052188476    7.88324524577660   16.33041859942732
H        -1.71973505908933    8.56889005245561   16.46502592027042
C         0.01654849820381    8.08643167304331   15.30275399261127
H        -0.05488769725345    8.98137157184403   14.69729394149525
C         0.98688328716872    7.13401553551976   15.03351267171903
H         1.68942097292549    7.28100159019755   14.22433682276004
C         1.04837732393387    5.98303194573351   15.80245039124592
H         1.81179634764154    5.24335437938052   15.60294041667893
C         0.13479028893158    5.76894827039521   16.81586915297246
H         0.18116139696450    4.86206634768348   17.40019821186750
C        -4.11621507816001    8.10583600472928   20.68172319807449
C        -5.50629808609532    8.23190872569509   20.72339311646817
H        -6.10921942423666    7.65731437572223   20.03334764787900
C        -6.11952323256242    9.08926399570540   21.61637144113265
H        -7.19818744881573    9.17854755193229   21.62516911869671
C        -5.35498529962950    9.82881904644921   22.50316709689847
H        -5.83153825829064   10.48830456834541   23.21580561138903
C        -3.97469231869384    9.72561634406360   22.46157711891884
H        -3.36723684384493   10.29897094782230   23.14662000669098
C        -3.35855211657466    8.88946948850401   21.54780843477716
H        -2.27998350020420    8.84656907085044   21.51111692337080
C        -0.61046698198265   11.57208010268742   16.20618735752682
C        -1.65673236382594   11.38482631041123   15.25144735650573
C        -1.59191043464362   12.00265440238021   14.01194165140639
H        -2.39854280822458   11.85196130809266   13.30643528122203
C        -0.53055963601919   12.82236444221509   13.67187265801073
H        -0.48528899435164   13.28228158931012   12.69443610048197
C         0.45873995206974   13.06488451079765   14.60603425623088
H         1.28508307377502   13.71266255492135   14.34541675343600
C         0.43528734593434   12.48127229131721   15.86702713560898
C        -2.79332485163812   10.50714180108958   15.57293610026901
C        -3.35762340882350   10.49571726542417   16.85085274627762
H        -2.98878111397445   11.17584249808239   17.60224032834847
C        -4.38296068113992    9.62217105553379   17.16394249202888
H        -4.79274161244527    9.62127533889737   18.16375603098749
C        -4.87140822592240    8.74561240361147   16.20923156905977
H        -5.65803207291758    8.04804815523082   16.46029407964116
C        -4.34045040364366    8.76555486288957   14.92995519082182
H        -4.71880770706243    8.08696179437972   14.17695385564706
C        -3.31462861985638    9.63645359134675   14.61365409811423
H        -2.88657392683904    9.61690481418873   13.62083388868102
C         1.45359324929172   12.87375888360700   16.85323777852678
C         1.99489529095285   11.98153832959434   17.77815124688317
H         1.70627958145283   10.93368319744042   17.75872942959761
C         2.94216639198551   12.39726613661110   18.69622418180590
H         3.35508450643397   11.67933120768913   19.38965426392489
C         3.36569846552545   13.71450243613344   18.72511151023226
H         4.10186331654800   14.03823986721446   19.44775931442417
C         2.83376859111098   14.61546721575585   17.81797134845766
H         3.15159339013464   15.64992298120423   17.83237948836629
C         1.89154534457394   14.20081841688776   16.89754248504223
H         1.47206503757840   14.92332252065179   16.21068097222846

