55
CSD_code = FUQCUR | q = 1 | S = 0 | Stoichiometry = C18H28ClCoN5O2(1+) | MND = 6
Co        1.81901376019398    2.56498953894360   13.81792222024583
Cl        0.72138233340883    3.91679928529462   15.30662638217163
O         6.92636326523403   -1.74620983382738    7.33272629366093
O         5.66051604278612   -3.42298200694994    7.79503178010151
N         6.03019616099338   -2.28007268436310    7.94761795868167
N         3.16809822727932    2.29363267930190   15.21977193796296
N         2.69818567422160    4.19055858186008   13.14980720044741
N         0.92020772638572    0.94318148378363   14.54403983043911
N         0.43682159460531    2.89002090814695   12.41962070350387
C         2.76236103781870    1.49668227106901   12.60885428794204
C         3.33928448134065    0.81464943739526   11.79313956917467
C         4.02562327301398    0.02877664735829   10.83318270274493
C         5.06468690776539    0.59081514547706   10.08576853156644
H         5.34711459113159    1.61997252051179   10.25107962136971
C         5.72390079435166   -0.16569984456242    9.14109832146055
H         6.52792024252893    0.24598305330329    8.55069717075209
C         5.34413941548424   -1.48790699311396    8.94210585771449
C         4.31564760008443   -2.06187983448843    9.68006439729880
H         4.04891565708351   -3.09180719438009    9.49932819361071
C         3.65804088666174   -1.30347434524728   10.62453290827933
H         2.85626772540039   -1.73507696459960   11.20501273172419
C         4.57798539541342    2.61371150691562   14.97913056515656
H         4.96092608040790    1.92988354783749   14.21714234379925
H         5.14902322250963    2.45972093977626   15.90217180951386
C         4.75468880829509    4.05637339736542   14.51765695440517
H         5.82049564538388    4.28010764702290   14.48097708176913
H         4.29841632638346    4.73476399488591   15.24253235286718
C         4.15934714654504    4.30258237834122   13.13556970680944
H         4.44496959495192    5.30440315224621   12.79414550858871
H         4.55256250575127    3.56904014631368   12.42732896829303
C         2.10234942645302    4.54768358877441   11.85640231538564
H         2.54909929782432    3.91571132245907   11.08294508001642
H         2.29183749134167    5.59704863387884   11.60671307913703
C         0.60884640794555    4.27742848464275   11.96277077785783
H         0.16765458335984    4.93871619570716   12.71319353843529
H         0.10547052827986    4.44773272388564   11.00566384562325
C        -0.96537638531845    2.60439876862733   12.74803133562236
H        -1.59212100956959    2.79605797650948   11.86941724208070
H        -1.27364232018550    3.28434885642721   13.54502523133500
C        -1.15733620118747    1.16393023388020   13.20887072660580
H        -0.72693930085990    0.47437461844287   12.47786381345281
H        -2.22675007824375    0.96237581589058   13.26763541203277
C        -0.54730639472886    0.92058702258984   14.58470965237478
H        -0.88055704585001    1.70103292238943   15.27202592669295
H        -0.88659771122465   -0.04727968697420   14.97164232733336
C         1.49673747622103    0.69389066551191   15.87400478796100
H         1.28747915227375   -0.32499538669957   16.21543105051864
H         1.04430637542350    1.39842273700811   16.57689148275521
C         2.99391645821558    0.94987807941911   15.78492662573859
H         3.46237395240290    0.86910825157426   16.77156343971222
H         3.46579583879509    0.22750746598926   15.11202318059849
H         2.81169861919458    2.96113379924630   15.91502176072293
H         0.68778930605096    2.28244654846716   11.63378884650519
H         1.21306840878061    0.16931022738186   13.94016973540828
H         2.34100100116546    4.86111157337719   13.84158489403410

