34
CSD_code = FUQFII | q = 1 | S = 0 | Stoichiometry = C9H16BrN4NiO3(1+) | MND = 6
Br        9.02011732665912    2.53243539445487    7.80460667510750
Ni        8.59862077804205    4.64784520154834    8.49635672291432
O         8.40055964173832    6.45476629470849    9.70303089901881
O         9.28048553507871    3.91017425196003   10.75096606774550
O         6.75261129385400    4.10344399228650    9.12186160918050
N         7.68455109658131    5.64544959144640    6.62082010126719
N         8.62448557183002    6.34604728713311    4.56501853040538
N        10.10975382131002    5.23847410290788    7.61711364206121
N         9.96895005162508    5.75450945997307    6.36680948818116
C         8.71171928948342    5.92687716189297    5.81305520194589
C         6.46839462312224    5.76533717596327    6.10370785656009
H         5.64438765911040    5.52936293746774    6.76273534537136
C         6.27086192586750    6.17254135631556    4.79274701271232
H         5.28432547653698    6.26044204839340    4.37264789480043
C         7.41008404613067    6.46693287142355    4.05551432648501
H         7.36603416852742    6.80793612877018    3.03091308406023
C        11.19523975889169    6.01893413674060    5.82263397431965
C        12.12166413094105    5.65289001075696    6.76864734084939
H        13.18651411909349    5.71800962636467    6.68453987094586
C        11.40778750952469    5.15176405936117    7.87029538155022
C        11.95695040915011    4.57362700533131    9.11563031572986
H        11.23908088520109    4.65678720279792    9.92796903592047
H        12.88455057777565    5.06982160924512    9.38660205107722
H        12.17355465075924    3.51736430538501    8.95150377833078
C        11.40093354538919    6.59006747681662    4.47899173355831
H        10.87181904519514    7.53493664132615    4.37197560846030
H        11.01134770254410    5.91739133612437    3.71722802813616
H        12.46273230787912    6.74720385667943    4.31249655859945
H         8.96933455825103    6.42615107095073   10.47965284808133
H         8.48855165797020    7.32291120245209    9.30242328339357
H         9.64533705242737    3.03899734570490   10.54457512139756
H         8.64761420421353    3.78224092521692   11.46277141391688
H         6.55358006689563    3.15788077657056    9.11114830546814
H         6.36646551254700    4.50254615560335    9.90771089247086

