36
CSD_code = FUQHAC | q = 0 | S = 0 | Stoichiometry = C17H10BrN4O3Re | MND = 6
Re       11.34312129978721    7.15470811620140    3.71125612038242
Br        9.87152417463303    7.38205380636251    1.59948972673129
N         9.48092869653668    6.56388200919529    4.63262990770936
N        10.45390850097299    8.93534358697273    4.24525292921505
C         9.17913496793458    8.91479696860401    4.68338153037926
O        12.92091414428408    6.90636387735228    6.35429280608297
C        11.22715051898196   12.42302811758744    3.83249864303858
N        10.62863415796770   13.58767246264695    4.07960843133026
C        11.27746301427104   14.69721602222384    3.79198478481626
H        10.74779325024895   15.61510002665882    4.01201864385446
C        12.55395291948479   14.71694555927034    3.24381188490811
H        13.04110749825344   15.65418829733158    3.02522803940530
C        13.17743033781799   13.50554152396198    2.98687907996525
H        14.16877352503690   13.47537726084427    2.55942969474512
C        12.50712779382341   12.33201071939534    3.28518235118878
H        12.94141684448633   11.36261844039590    3.10317561255839
N        11.06858820879705   10.05457674499562    4.00571155489394
C        12.34612425891745    6.99208303244099    5.36611769418070
C        10.46053074837810   11.21894777986080    4.15998376249124
C         8.63106942554385    7.57847491987237    4.89679133030265
C         8.48431220063070   10.11406492915851    4.88277959132440
H         7.46320751377324   10.10884256211429    5.22970493204492
O        13.59971504329715    8.61826179772998    2.18462746722348
C         7.77132317794402    5.00653091624984    5.21379883449952
H         7.47429722343623    3.97603544814265    5.31913929017142
C         7.32589500351654    7.34272517901472    5.32584000993422
H         6.66116373789469    8.16765829810942    5.52240799558883
C         9.05153838127770    5.31593449140884    4.79468429686113
H         9.76293491279772    4.53089203515977    4.57322613335846
O        12.08276610953166    4.34452372521183    2.63545555766225
C         6.88773880117038    6.04261312995450    5.48226928624362
H         5.87771740271831    5.84022312214097    5.80298612091312
C         9.13096229408960   11.29537295665044    4.61107988616085
H         8.66422950236330   12.25927584901284    4.72446840408982
C        12.81961370697317    8.02448246143216    2.76961739104234
C        11.87609070242707    5.38503382635178    3.06389027470740

