96
CSD_code = FUQHUV | q = 0 | S = 0 | Stoichiometry = C45H42Cl2N3O2PZn | MND = 5
Zn        3.75410225441365    8.79283760369394    3.18107902938084
Cl        1.10858725580256   11.54577961047622   -2.40820526458980
Cl       -0.88641338066586    9.22412404934460   -1.72401626072395
P         0.52352139751879   12.82275762952026    7.39998360192933
O         5.28921607214572    9.67282391824367    3.87591570196984
O         3.90478187816114    7.21459608887920    4.20161149100760
N         4.01972427110519    9.84769302155979    1.47055521978624
N         2.38761931058812    7.86531520618448    2.01036136057052
N         2.46074386033084    9.95946649848762    4.33582668150815
C         6.20170982583466   10.40792398685923    3.36661273120272
C         7.30242670504947   10.87060329647445    4.17456188130746
C         8.29472107378100   11.60935329849166    3.58431120544446
H         9.13158456921787   11.95736578998396    4.16817361628265
C         8.28322832751233   11.94596374091160    2.22169574660718
H         9.09919757347349   12.52013790447851    1.80963751590796
C         7.23857356577276   11.55543477287201    1.44172404987492
H         7.20192976602788   11.82168260134714    0.39417104884399
C         6.17121928959200   10.80538572714081    1.98551748043345
C         5.09764655446753   10.49189426782515    1.12927550091349
H         5.20393803327223   10.83549712893619    0.09562174573031
C         2.93187784559346    9.71485532715869    0.63977946379687
C         2.62327634425600   10.59329221244364   -0.39788980967960
H         3.27156978221771   11.42540997888463   -0.62272555091747
C         1.46303001827089   10.43756873961485   -1.13476124007863
C         0.57813207472575    9.40710632400769   -0.83105582589504
C         0.85979031707744    8.53430933730156    0.20466088866086
H         0.13953564898945    7.76802457335321    0.44244737491602
C         2.03339437319014    8.66086342803888    0.94497574011663
C         1.90234916717363    6.67537591498467    2.19902861549810
H         1.20049015519021    6.26424740718144    1.46757132912852
C         2.23883924935811    5.80592268579869    3.25749053382816
C         1.54877532531792    4.57470606757745    3.32122787194853
H         0.77140563134780    4.38015446152924    2.59505221886837
C         1.84606423065142    3.65724172569096    4.28186846827747
H         1.30874707246072    2.72304305885036    4.34288166444189
C         2.88078235256808    3.92004053463549    5.19125936656140
H         3.09883718791286    3.15612829865484    5.91971527605541
C         3.60793808614326    5.08291454565855    5.17348411744373
C         3.27531343027046    6.09892744915378    4.20739380447546
C         7.32949075180707   10.52167977957952    5.65743169623422
C         8.53164450070285   11.12915631032149    6.38896869803180
H         9.46949603050538   10.74799368802635    5.99184197836859
H         8.48156363013350   10.85742554371046    7.44178055994805
H         8.52958825650368   12.21519856043697    6.32173588119067
C         6.05489047940570   11.05791397432096    6.32550629843722
H         5.99907087421742   12.13973607861043    6.21008618984555
H         6.05940429433994   10.81702872205034    7.38691579895859
H         5.17517622637386   10.61002377782958    5.87436772847588
C         7.39697881048489    8.99764790126772    5.81285210505607
H         6.53635769937190    8.53545134149323    5.34282505016992
H         7.40768556492345    8.72872643370855    6.86709347948946
H         8.30089714433364    8.61181005158210    5.34559431783072
C         4.77181833645599    5.31444761556016    6.13026454013773
C         4.97916843060092    4.14855329842594    7.10355399686774
H         4.10682132178016    4.00227106749353    7.73703872447277
H         5.82761044428327    4.37105967043991    7.74773509785962
H         5.19784750885602    3.22390037946207    6.57447866664343
C         6.05381412139331    5.47230507455724    5.30097581750008
H         6.25017428645043    4.56240726893326    4.73672271688535
H         6.90157109760657    5.66764588462066    5.95396520276880
H         5.95552592354447    6.29870179350589    4.60437059238371
C         4.53074945257325    6.58054029458311    6.96326056233015
H         4.52471302369724    7.45586429693868    6.32317670754618
H         5.32447441764898    6.69754042703560    7.69821115516066
H         3.57957447796763    6.51140607420693    7.48935686041823
C         2.03617243781104   11.15463706813683    3.94129295867684
H         2.16275605505723   11.38202477575224    2.89192890538903
C         1.46346119985796   12.07821200206311    4.79597099776846
H         1.13914802791527   13.03567081154594    4.41692555617689
C         1.33298381707950   11.76161002343496    6.14515866558467
C         1.75931914099557   10.49514642476999    6.54735517910378
H         1.66645949113685   10.19357180706872    7.58063366610954
C         2.31381589519519    9.63880532880572    5.61899414987030
H         2.65858699476348    8.65501195168413    5.89932065594452
C         0.55868720797694   14.43961204183744    6.53394890789299
C         1.49405223299200   15.43665031241804    6.77938106143293
H         2.28348502753353   15.27683119439162    7.49939663174610
C         1.41380490058267   16.64058970586434    6.10100740605258
H         2.14562848228141   17.41131528772368    6.29427427220750
C         0.40256920519021   16.86105844217049    5.18122678664683
H         0.34517263899465   17.80272827673258    4.65591639289367
C        -0.54164790822652   15.87519065508520    4.94260825496199
H        -1.33754251193157   16.04658978217806    4.23274039595867
C        -0.46938662444257   14.67428137847765    5.62262300961648
H        -1.21187298210954   13.90511870362831    5.45316125417155
C         1.92848944787424   13.01113553576040    8.56416028160834
C         1.60944742423367   13.33020515802212    9.88029480410735
H         0.57025165725716   13.43205556482518   10.16223328539851
C         2.60948730809413   13.51648440693338   10.81736902837342
H         2.35418443068964   13.76595038984889   11.83675023268987
C         3.93666464970724   13.37884299988627   10.44619211134744
H         4.71970691581298   13.52133353611474   11.17607472216582
C         4.25967268999392   13.05766373408797    9.13766187808827
H         5.29393018508029   12.95268929917253    8.84550947840923
C         3.26343242941104   12.87384508701530    8.19605656686739
H         3.52746653107683   12.62703479352369    7.17760368882714

