64
CSD_code = FUQHIJ | q = 0 | S = 0 | Stoichiometry = C26H33AgClN3 | MND = 2
Ag        0.13641777798771    8.38309505609189    4.25936725423019
Cl       -0.21133947130002   10.54434601741498    4.80604374504089
N        -0.34044764656705    5.25040657080884    4.46889568385975
N         1.43467010849152    5.73450968951720    3.36539645526930
N         2.38490210579358    7.74594567127089    2.91817252512663
C         0.35216724641253    6.29264819675036    3.98657331745531
C         0.27068846289505    4.06083362394786    4.16150037667191
C         1.38784148126028    4.35996348775827    3.46446047879649
C        -1.55731970911090    5.35914922055897    5.19495020554843
C        -2.75807957225941    5.07457707355846    4.54534279586806
C        -3.93591705340374    5.15661170891335    5.27108349192698
C        -3.93655064188078    5.51749287115252    6.61115593732130
C        -2.72641072106638    5.80456207686629    7.22716416648146
C        -1.52538188731622    5.73408015932565    6.53844219853657
C        -2.76620265803972    4.71151905958978    3.09096873841545
C        -5.22096672736219    5.62992041193001    7.37201983971687
C        -0.23047999901064    6.07095825711054    7.21084106137395
C         2.43081975040212    6.49306920128149    2.75538486912719
C         3.46828306867625    5.74220012276906    1.97127295595629
C         3.30420867951078    8.65141067106884    2.38557104397032
C         4.38425012089124    9.06094759413410    3.17953733685460
C         5.22762432245431   10.04385325873974    2.68734849704037
C         5.01438002117743   10.60381429809389    1.44149728235393
C         3.94653316748637   10.18947563861027    0.66846004588164
C         3.07883401478504    9.20692574129259    1.11946564241189
C         4.56033457919129    8.46469475806130    4.55795074187160
C         6.00800768518146    8.47962179118291    5.04772216609238
C         3.65715844762651    9.21212131292410    5.54329646433191
C         1.87147545670337    8.77823186191950    0.31675117210872
C         2.08125810657404    8.87874380257889   -1.19423125135564
C         0.66657995001346    9.62010339215021    0.74609950065925
H        -0.13023833955770    3.11619785347634    4.46825345994985
H         2.13508501748512    3.71300872121631    3.05642733720583
H        -4.87295509840612    4.94213811968698    4.77802569118941
H        -2.71812986276481    6.09643113663439    8.26705081054808
H        -2.23108111552167    5.46434200145564    2.51230784050255
H        -3.78538892332336    4.64863126716700    2.72024602143488
H        -2.27994787153409    3.75007162052549    2.92380492394377
H        -5.57460206067248    6.66068231997368    7.34165268488849
H        -5.08036166550425    5.35509714693575    8.41474751207457
H        -5.98978999012329    4.99589615465094    6.93738739765369
H         0.52832501441556    5.31492938694823    7.01188885044827
H        -0.36805500456703    6.15833632161386    8.28476302792248
H         0.14173529216079    7.03043090469803    6.83289371244696
H         4.12966032497742    6.45559095876290    1.48465893781537
H         2.99917217948799    5.11564659412377    1.21394558144859
H         4.06229111633540    5.10981973319817    2.63040933420409
H         6.06018500633069   10.38386592080248    3.28178246293321
H         5.67888736450268   11.37209380708763    1.07506282661834
H         3.78792514907073   10.64221129620451   -0.29709592411150
H         4.23245564469622    7.41838330624785    4.52335384097541
H         6.67659749926551    8.06323744561633    4.29671691923000
H         6.09349130513440    7.88330584571565    5.95400729194481
H         6.33094324366634    9.48996792460242    5.28393570053781
H         3.93306702199856   10.26282149042155    5.58317675296548
H         3.74833623583913    8.78763144246013    6.54104768215205
H         2.61000806050613    9.14913513844094    5.22972800121394
H         1.65343820473908    7.72962066506954    0.55212940213954
H         2.10428847505601    9.91542350491707   -1.51961165154483
H         1.25998811857721    8.38650929875351   -1.71143589318672
H         3.01223616244490    8.39828039272163   -1.48962758355885
H         0.46937488892476    9.48857783181992    1.81634262152956
H        -0.22141154101290    9.32666184596833    0.18989407663103
H         0.86033168118027   10.67479000469827    0.56642561095014

