39
CSD_code = FUQLAG | q = 0 | S = 0 | Stoichiometry = C18H14MoN2O4 | MND = 6
Mo       10.40662858039237    5.29130278793290   11.59585191859323
O        10.98845485911449    2.85720904542497   13.41549079920734
O        13.14634252919830    5.08354651828908   10.17533261436280
O        12.07271947143435    6.91629885417554   13.64504696133578
O         9.45737133551879    3.47871964111376    9.26328431442438
N         9.70387688943966    6.97230620296867   10.50672712185397
N         8.54960547727866    5.68169837996164   12.40340461376870
C        10.79112479469812    3.74868831691600   12.72322627450611
C        10.33721173635055    7.62505697232374    9.53491428864054
H        11.34261320738756    7.28954321841016    9.31120373723085
C         9.77408770210952    8.67222942169368    8.83043673142893
H        10.33685480795938    9.16208880116499    8.05227159378113
C         8.47722709706057    9.07949624463777    9.13707788390154
H         8.01153372803402    9.89080380911386    8.59949715624476
C         7.80828982411062    8.42082556616655   10.14534748117174
H         6.80331851255888    8.69592653863921   10.42723836767808
C         8.44780422605423    7.37165460655540   10.81651714882240
C         7.85712911925697    6.64615061482706   11.89985316615245
H         6.87596887776914    6.92694181118789   12.28425223812694
C         8.07702286853192    5.03385750399179   13.55696969587535
C         8.11980171038297    5.70619506728788   14.78589989707253
C         8.58624270946613    7.12999254230553   14.88740312363139
H         7.75485219572811    7.81763562164397   14.72305211290197
H         9.36023779235810    7.35463349226571   14.15254836200917
H         8.98635121172031    7.32208611293452   15.88016109295326
C         7.72932748315599    5.02831923842621   15.93213102249550
H         7.77997156569240    5.53659075929666   16.88377144280835
C         7.27415757919121    3.72537294249004   15.86835752437794
H         6.97327306581985    3.21193833059477   16.76871316660717
C         7.19545464804426    3.08636756594003   14.64514817775697
H         6.82229964478712    2.07462861231715   14.58794777154913
C         7.59002654790696    3.72421220034946   13.47866176383009
C         7.47779893911878    3.01350306350234   12.16387646291560
H         7.20020160727899    3.69683418702855   11.36143290500141
H         6.72848135470637    2.22748291893254   12.22465771934937
H         8.43172635503521    2.54928577710828   11.90688605821042
C        12.13402876238873    5.13892782083048   10.71156647626739
C        11.36923090237508    6.36800867534490   12.93031647488325
C         9.72395028058547    4.14744021590635   10.15072433827195

