71
CSD_code = FUQMEK | q = 0 | S = 0 | Stoichiometry = C36H30O2P2Pd | MND = 4
C         0.68373796117297    5.24785174363765    4.16643538387413
C         1.23700755177737    5.75743968411401    2.99276331654659
H         2.28205597570713    5.52856500239945    2.73824926761819
C         0.47950349959756    6.56611738186554    2.16418168967575
H         0.90871563879293    6.96397454960123    1.25646478876097
C        -0.82783636880734    6.87414217307072    2.50507061766319
H        -1.41778646486513    7.50989307474274    1.86135115181204
C        -1.37816210792431    6.37665888743840    3.67587268801141
H        -2.39482641581128    6.62576612595463    3.94355936753685
C        -0.62735916174691    5.56559142343120    4.50714431012735
H        -1.05273106672047    5.18324277971208    5.42427998528926
C         1.48900482960905    4.85673362837558    6.88182360252707
C         0.39541861909598    4.51067891029396    7.67028820647126
H        -0.32960587993204    3.79395110087857    7.30902610235376
C         0.24873244218752    5.07119289597102    8.92604862870219
H        -0.60180358017683    4.80329441339510    9.53641459940833
C         1.18770417527963    5.97219266068027    9.40305116127418
H         1.06637521398133    6.40610107475166   10.38480413660984
C         2.28304860079437    6.31047171935181    8.62523275885231
H         3.01841546099492    7.00741289668180    8.99905100821004
C         2.43746156707172    5.75278047377355    7.36860317122491
H         3.29202152511684    6.01574120303501    6.74896248606639
C         0.87701189909139    2.61592481884345    5.29780766871081
C         1.35642537693556    1.69157783019791    6.22363511146126
H         2.20202667638480    1.95945058094050    6.84607082617101
C         0.75552483059489    0.45538747699224    6.35160164428654
H         1.12599957088098   -0.25274535512296    7.07863672963992
C        -0.32378845561076    0.12588661795600    5.54620132209410
H        -0.80130308060362   -0.83721642612770    5.65006028316432
C        -0.78458882883439    1.02923555873023    4.60408637241551
H        -1.61801142193027    0.76873364056810    3.96809808412115
C        -0.18454094619491    2.26935998874987    4.47279803858180
H        -0.54404753936248    2.97055122568759    3.73317117769834
C         5.02569114974077    1.54255169157951    5.12534492565648
C         5.09380331337728    2.25147543985348    6.32411326016939
H         4.73149907753638    3.28927946075168    6.36386243743519
C         5.63421667564570    1.65958805897126    7.45185960924009
H         5.68543155241963    2.21046677906079    8.37956760162513
C         6.11687788361204    0.36217442294022    7.38744223413330
H         6.53857723638895   -0.10086825530352    8.26732096871085
C         6.07730256902470   -0.33615071613237    6.19094966013583
H         6.47360365136710   -1.33990211842938    6.13868139108721
C         5.54115888489029    0.25164156424334    5.05935605105889
H         5.53644386001883   -0.28230037938054    4.11924409718477
C         5.65138059397001    2.13165192971484    2.46341356189847
C         5.68403959386585    1.03817792438773    1.60494183777115
H         4.87053255145931    0.32499530209894    1.60239785709970
C         6.75383772398794    0.87748235064540    0.74239547256682
H         6.77830009579601    0.03088577881719    0.07124516067384
C         7.78993657804664    1.79763701873071    0.73608880244902
H         8.62124146297519    1.66612204137332    0.05896370918278
C         7.75621922211849    2.89010201564460    1.58837116824680
H         8.55939246476138    3.61186146164908    1.57627306224306
C         6.68768798684999    3.06150094633275    2.44895925156928
H         6.63461593251117    3.92578863472336    3.10300065124507
C         2.98597457537103    1.37565437257107    3.03174146891240
C         2.60698182062811    0.12710271654280    3.50295786305407
H         3.12613296661148   -0.31976123649855    4.33798979966284
C         1.55343992970802   -0.54168954297295    2.90301831436636
H         1.26408633317184   -1.51679884965758    3.26680244306681
C         0.87114583493637    0.03098622023881    1.84360138822439
H         0.05282130329735   -0.49935889780831    1.37944009058947
C         1.23059157662326    1.28917571750149    1.38489433139034
H         0.69038249411844    1.74301032270666    0.56697464236566
C         2.27974581421331    1.95900334798798    1.98112587678395
H         2.57274855779356    2.94934667329723    1.64335645158369
O         5.32764545133924    5.68921461566848    4.03658872161591
O         4.35271189865509    6.33950875113284    4.71985364822105
P         1.76574793770304    4.20337739411800    5.19993925180290
P         4.32620760418949    2.41936727079387    3.68563706347586
Pd        3.85154574468915    4.50876001151726    4.38244018652079

