133
CSD_code = FUQNAH | q = 0 | S = 0 | Stoichiometry = C46H80N2O4Pd | MND = 4
Pd        3.58109672317369    5.05547581836243   -0.00008521313116
O         3.03330515735103    3.59869389595227    1.38617730996562
O         1.43844146612133    5.07527105158282    1.73625792464156
N         4.97567279975574    5.92817607193242    1.21176327130822
C         6.19424554115343    5.38225259183053    1.29862287910832
C         7.29609376557864    6.14630209281394    1.66871179975636
H         8.27201294212573    5.68899361783840    1.70576486461712
C         7.13011960389181    7.48756520332046    1.96045923065695
H         7.97622919006793    8.10406553464566    2.22524772119381
C         5.85441806965357    8.02074984102485    1.91648108197658
H         5.68024181206374    9.05732459422404    2.15709771738043
C         4.78658618165051    7.21240643431886    1.54324879140297
C         3.38279961196566    7.74151718730561    1.53205977064190
H         3.30836540209919    8.51025238937568    0.75980714330545
H         2.69646007771320    6.91361981210834    1.29113569987970
C         2.93517944763015    8.31335585431368    2.88893377793485
H         3.53959458715160    9.19290742288993    3.14070516881768
C         1.46322775686527    8.73065577926813    2.80412173726390
H         0.87911557235034    7.86714874663795    2.48079689965504
H         1.12047423230223    9.01263846480435    3.80067043642337
C         1.21232450220706    9.90602184152578    1.86575060339800
H         1.83719748278377   10.75472913209837    2.13865235271406
H         0.17215860400592   10.21771578543482    1.92769380369447
H         1.41932081309413    9.64259007457547    0.83269472106689
C         6.34677620120993    3.91676434720377    1.02622003303308
H         7.06969268247309    3.79347415570393    0.21917688500776
H         5.37936990086767    3.51144440562091    0.70211283671403
C         6.79198966876645    3.13627409702335    2.27511181193126
H         7.70191882872669    3.58872058804745    2.68563213278192
C         7.09274064301533    1.68012097126631    1.90432997004152
H         7.25032254363178    1.10923181314999    2.82090952503840
H         6.21953887272751    1.25921672796950    1.40204518863198
C         8.32236387960910    1.51100980193472    1.01894933697090
H         8.17503472815584    1.96298555835043    0.04213870016691
H         8.53220772362977    0.45409998933609    0.86981277531785
H         9.19331022237918    1.96791792820077    1.48457690194284
C         5.68126966266080    3.21456310210247    3.33148410807011
H         5.29811388803316    4.23781645004889    3.36868375980332
H         4.85128881099071    2.57945905205668    3.01587696152361
C         6.12851724291645    2.82243843346430    4.73729387993350
H         6.90046266353724    3.51769245116083    5.07824741622467
H         6.56550024236901    1.82213426065726    4.73217613301424
C         4.96200340365542    2.84343339147261    5.72212566229107
H         4.49565772158391    3.83013349951254    5.70459784554868
H         4.21187554989318    2.11628505363686    5.40271271377308
C         5.40771971062978    2.51974498370490    7.14245323306542
H         5.85473450606625    1.52877647929078    7.18614706874690
H         4.56212936453433    2.54512615710837    7.82608159936717
H         6.14670340368829    3.24189818847634    7.48354490862709
C         2.00051161457685    4.00799754949213    1.99229764380229
C         1.47320366511245    3.10215255166742    3.09935053843294
H         2.08834515108725    3.24785555835287    3.98551674410457
H         1.54575009078087    2.06150283002691    2.79489198497946
H         0.44405540571290    3.36012372977596    3.33052714812535
C         3.14100368290969    7.24632215301461    3.97193051784026
H         4.15600207678507    6.85496282588646    3.87739180242779
H         2.45064711083031    6.42155596974010    3.78412600217599
C         4.93896878849208    6.65541294696732    6.54902056263079
H         5.21977823181269    5.95536124190422    7.33268563405562
H         5.37288261428760    7.62521404004040    6.78463199253987
H         5.37068610945554    6.30717062450058    5.61362386779848
C         2.95481405438094    7.76572748206950    5.39664533431083
H         1.90043701173975    7.98568199694763    5.57130330789260
H         3.51378508608827    8.69716121113893    5.52100087860033
C         3.42095047366191    6.76252564968520    6.45391686166487
H         3.03343273508774    7.07033772243253    7.42821191377561
H         2.99620281311625    5.78212071194695    6.22649165285083
O         4.12822396130305    6.51238669477393   -1.38649229650037
O         5.72320826873026    5.03593612876148   -1.73639694578353
N         2.18603720168766    4.18318217086182   -1.21177507162694
C         0.96744747953379    4.72910217609234   -1.29863926083633
C        -0.13438716619938    3.96504692473551   -1.66877288775509
H        -1.11031518130806    4.42233634071870   -1.70582752313043
C         0.03160211224170    2.62379479445091   -1.96056342914582
H        -0.81449820693816    2.00729023854669   -2.22537171638556
C         1.30729991524546    2.09061191750134   -1.91655687186778
H         1.48147292473103    1.05404096052497   -2.15719378758051
C         2.37511968428644    2.89895880448878   -1.54329256473983
C         3.77891938802479    2.36989216511307   -1.53207483693657
H         3.85333210850132    1.60111746544985   -0.75986104628894
H         4.46520140022935    3.19781803977439   -1.29104889830236
C         4.22659134985633    1.79810596031330   -2.88895458818200
H         3.62218226223124    0.91856502144415   -3.14077199928844
C         5.69853588998122    1.38078224217032   -2.80413103626599
H         6.28265219327780    2.24428213299039   -2.48080129593665
H         6.04128266926404    1.09880440906316   -3.80068440775268
C         5.94942497357121    0.20541534624272   -1.86575484060980
H         5.32453851269285   -0.64327764362947   -2.13866674501862
H         6.98958643107267   -0.10629768686545   -1.92769409976356
H         5.74242447136739    0.46884681454152   -0.83269797989336
C         0.81486594624227    6.19458985448899   -1.02622992434960
H         0.09193900009763    6.31785747402117   -0.21919258459422
H         1.78222970856861    6.59999721391896   -0.70212550847451
C         0.36966269506170    6.97509730017249   -2.27510908273545
H        -0.54030539647682    6.52270179661882   -2.68558859394104
C         0.06901890242628    8.43126374906140   -1.90429607830101
H        -0.08853090492977    9.00218430999958   -2.82086067911777
H         0.94225814966544    8.85208873155068   -1.40201372858597
C        -1.16057736228687    8.60043572763870   -1.01889044333930
H        -1.01329054775731    8.14837067139942   -0.04211437441620
H        -1.37030981728260    9.65735608700809   -0.86967497463348
H        -2.03157191114324    8.14365410214865   -1.48455042529129
C         1.48034280439989    6.89673078483768   -3.33151847920823
H         1.86336629196907    5.87342933241339   -3.36879718635755
H         2.31041106582916    7.53171511839727   -3.01589823308808
C         1.03310922441232    7.28897685256622   -4.73729796827640
H         0.26108059468076    6.59382628474684   -5.07827707116346
H         0.59623617322762    8.28932562083819   -4.73211688041240
C         2.19961093376314    7.26792219010223   -5.72214265777262
H         2.66585306125593    6.28117458193129   -5.70466824337853
H         2.94981919205437    7.99497685916480   -5.40270158676996
C         1.75391373152409    7.59172028711708   -7.14244967882700
H         1.30699480152468    8.58273282493573   -7.18609030768975
H         2.59949572725755    7.56629273177391   -7.82608555220644
H         1.01485783388126    6.86965608081532   -7.48357318064274
C         5.16167791632479    6.10362462465755   -1.99184614312871
C         5.68861751410823    7.00913866296966   -3.09935933356036
H         5.07335646839743    6.86340618431547   -3.98544583860452
H         5.61619233114047    8.04982576212602   -2.79498901055556
H         6.71771837234555    6.75104901688633   -3.33063205996241
C         4.02078741417500    2.86517511646350   -3.97191597708347
H         3.00579502979333    3.25656979281443   -3.87737130886229
H         4.71117169724530    3.68991236374268   -3.78409463423666
C         2.22272464853768    3.45601407125300   -6.54891805112263
H         1.94181574762789    4.15611976369068   -7.33250530512911
H         1.78890033795733    2.48619752145651   -6.78460849369991
H         1.79100633406095    3.80411163594134   -5.61346984988874
C         4.20700111609528    2.34577220624552   -5.39662825320782
H         5.26139094769755    2.12585396663883   -5.57131414809319
H         3.64805518646371    1.41432661394033   -5.52098470279530
C         3.74075032705196    3.34897574600147   -6.45384690502059
H         4.12826390932246    3.04123322503638   -7.42816009951894
H         4.16543203587708    4.32939781980613   -6.22639760160097

