42
CSD_code = FUQNUC | q = 0 | S = 0 | Stoichiometry = C14H17FeO9P | MND = 7
Fe       -1.24392009046764    1.40277655417657    2.39347668807762
O         0.16990209959679   -0.79365237523417    1.08193581709779
C        -2.82748716380726    1.28097118340759    1.62450610333983
O        -3.84010631319215    1.14641583546395    1.11049597121395
C        -1.86485691080165    0.52301891310805    3.79895549100376
O        -2.24047482873163   -0.11129685795407    4.66880614915458
C         1.65330218113246    2.35918395184294    2.34789747776199
H         2.36222228511060    1.53140856496669    2.28870397916485
C         0.55268746882038    2.05497776553733    3.33943687246792
C        -0.45191395547120    3.08080922484913    3.46902081514364
H        -0.77622050451832    3.44399410465635    4.43555371990828
C        -0.95542050669955    3.53872149890238    2.25019683996032
H        -1.72613217047337    4.29798380026973    2.19095011370665
C        -0.44195155377083    2.86373323500704    1.09497696502895
H        -0.87626677049046    3.15591939841426    0.14095049184298
C         1.07144697603819    2.72526644473750    0.97972271338804
H         1.31174859583157    1.95479692927485    0.23115818388323
C         0.96321942421243    1.38105409312954    4.59933473862728
C         2.45443660238639   -0.15924550917699    5.56742445740947
H         2.38253301590211    0.48313766676606    6.45074392686838
H         3.49974417010018   -0.40311553815823    5.36664607763192
C         1.62105473098304   -1.41821656207742    5.76198123001246
H         2.01473116455114   -1.99152070901125    6.59637572183398
H         1.64894621735466   -2.03059663060674    4.86368871659862
H         0.58916848984911   -1.14942591685174    5.97403717163291
C        -0.38868421833321    0.06971061241052    1.57660197173452
C         3.82819346514250    3.94877524285421    5.25671609564498
H         4.17179104655586    3.24116111542734    6.01084505894721
H         3.38516381036812    4.81997290582696    5.74291916389671
H         4.66723740819553    4.26844878015174    4.63460040455345
C         1.62138237269937    6.18962443991513    2.43510169494874
H         1.37558065749483    7.04154310878757    3.06877968740998
H         0.88407809753468    6.08360416359439    1.63883489680537
H         2.60931916416085    6.32443896765672    1.99145628025722
O         0.37203186427864    1.50008401716347    5.64678977624139
O         2.02039347081597    0.57810061730033    4.42529522944293
O         1.56194644774219    3.97590652756461    0.53779416019913
H         2.51114510533914    3.91058839117667    0.37022064606387
P         2.60707442402765    3.81209107548023    2.97467059201144
O         1.60969950891851    5.04095708307721    3.26328017905308
O         2.86119167306816    3.27687948364964    4.46764895981502
O         3.83086304854543    4.19461440252591    2.25656877021700

