62
CSD_code = FUQQEP | q = 0 | S = 0 | Stoichiometry = C28H30AsCl2Rh | MND = 8
Rh        6.39748569777930   11.98677246114713   13.68479038620441
As        7.46874365562877   13.23595254601807   11.98324008494931
Cl        6.20001051126741   14.14954145376083   14.54710847920295
Cl        8.63351281540465   11.89353174260683   14.36662843517962
C         5.96984904317230    9.84775102169289   13.47768585455340
C         5.14561643046191   10.56420362767180   12.55726837090624
C         4.32382590130370   11.45907735888393   13.31643097049013
C         4.57657448155804   11.21567268182805   14.71841009134056
C         5.59652205625198   10.24246592399865   14.81822263703055
C         6.85549810176149    8.67860128002002   13.18093242948311
C         5.07129794145050   10.34955471600271   11.07770886385789
C         3.18340645477641   12.27750949542837   12.80018203261084
C         3.79949902916297   11.84913953800447   15.82635223637896
C         6.13746587224116    9.59785508864283   16.05416345486213
C         8.75015104914657   12.32442943970263   10.83929972555488
C         9.01106324694640   10.97230718920827   10.99982759915958
C         9.93383795078641   10.33530843869402   10.18647091578312
C        10.60107596271934   11.05142511827084    9.20743541668784
C        10.35481252636459   12.40667775435629    9.04876325572798
C         9.43556388623656   13.04235411722031    9.86357540141016
C         6.17101921327598   13.92024149044936   10.69553479352417
C         6.19862245869830   13.60582265864620    9.34212957666967
C         5.20516889601174   14.07114726236784    8.49575407089950
C         4.17217528959703   14.84727073739677    8.99345652435689
C         4.12403158723096   15.14577930192572   10.34594687307869
C         5.11179881307052   14.67584466662030   11.19334891340664
C         8.52678869001695   14.80151823249967   12.40871610596366
C         8.00777821623163   16.08851330884551   12.34880315282200
C         8.80286581595022   17.17281060275747   12.67900953276249
C        10.11651765501849   16.97950344572991   13.07132018164706
C        10.63949926773990   15.69805020494760   13.12730775446002
C         9.84959333784037   14.61210732127718   12.79512120894871
H         8.50129554969467   10.43450102324181   11.79093132464432
H        10.13761184315705    9.28235936146134   10.31946119601898
H        11.32158058912303   10.55745836175522    8.57210380125223
H        10.88416490018239   12.96744904794445    8.29168265595245
H         9.24307392727695   14.10699754361595    9.75365768645142
H         7.00062805188585   12.99192130488598    8.94724742052672
H         5.23696471928293   13.82327628683357    7.44426845861014
H         3.40047615603323   15.20984177845068    8.33027085358297
H         3.31098005440916   15.73825426952342   10.74057654895512
H         5.06598161757129   14.87578379979725   12.25985257624266
H         6.97621648649191   16.24169154289961   12.05374673805201
H         8.39234078026613   18.17153356652085   12.63588043744615
H        10.73155803987751   17.82715545530933   13.33641997150245
H        11.66302295063158   15.54317745538078   13.43682716283207
H        10.24704736556240   13.60370350899632   12.85253496509822
H         6.39040571411399    7.77064986384773   13.56988653714397
H         7.82417985914998    8.79021811678568   13.66657190842411
H         7.00558653254599    8.55469870570378   12.11103377880597
H         4.35188355409424    9.55707015466059   10.86167394720979
H         6.03814285759677   10.05723306466944   10.66876895611168
H         4.74497692680907   11.25540450775458   10.56708135998213
H         2.26055924141522   11.69685181733045   12.86474414681685
H         3.33802955951470   12.56374476911416   11.76176886619611
H         3.06105869161542   13.17985687895397   13.39487912424608
H         2.74144993906158   11.61029021663139   15.71146508100420
H         3.90940396733835   12.93349752568467   15.80143912778814
H         4.13758877946730   11.49393102264459   16.79618341420471
H         5.76231478179947    8.57513796281082   16.12879549033177
H         5.84259060951812   10.14518015361845   16.94574398213832
H         7.22551409936843    9.55999070655031   16.02075715258066

