62
CSD_code = FUQQUF | q = 0 | S = 0 | Stoichiometry = C28H30AsCl2Ir | MND = 8
Ir        5.08210216252115    6.63330068113277    9.53053526842389
As        3.93831244060141    7.38862771669594   11.47602138126267
Cl        5.23738759785377    8.99205822810600    9.29692322170661
Cl        2.81359940665262    6.68871527272119    8.81340190404632
C         6.96958793594073    6.16353376950352    8.37471339518882
C         5.98974488758938    5.21751009930463    8.01223050818744
C         5.59929638532282    4.49974233365571    9.20519513416425
C         6.38478783905732    4.98525833883646   10.29297037468898
C         7.18533101408761    6.06306568693740    9.79973722769369
C         7.73784797863313    7.07975531623328    7.48170748817564
C         5.49486185394342    4.88145751808920    6.64379465763001
C         4.74375585116231    3.27406234863284    9.18591967026162
C         6.42522151708732    4.42283575423935   11.67792522940042
C         8.27764043388274    6.77090397202037   10.53251676877162
C         2.84002270555270    8.98291100794667   11.47503001181706
C         3.31970724258527   10.21576988466646   11.89733134656121
C         2.49432855126878   11.32724614225752   11.86691114803845
C         1.19030110192165   11.21424161071249   11.41564298942181
C         0.70680705590102    9.98470429765625   10.99894079943374
C         1.52677319909019    8.87109679061589   11.03037365606692
C         2.67863792984080    6.16792707395873   12.31040995933349
C         2.46004543201058    4.90070103427084   11.79271085769216
C         1.55109455966333    4.04574145210060   12.39399844530507
C         0.85537755675458    4.45719229980407   13.51801056201665
C         1.05995576430600    5.72723479491864   14.03498675701565
C         1.96575952131737    6.58106878368116   13.43178538374524
C         5.20554672528797    7.72630496436832   12.91677290144658
C         5.17490521857363    7.05071816848988   14.13069101738887
C         6.14554040159884    7.29086384610116   15.08985808494420
C         7.15946183471443    8.20085062439294   14.84276126308900
C         7.21123022779020    8.86125698935288   13.62548994303795
C         6.24563364275899    8.61766620852639   12.66467320698844
H         7.41038732689657    6.98909502213012    6.44945019255203
H         8.80138994334659    6.84324262205301    7.53585188022583
H         7.60350087990653    8.11571202538635    7.79268669610907
H         5.90858412170981    3.92324599749280    6.32367458125073
H         5.78124288658702    5.64274976700815    5.92323654974847
H         4.40919477921489    4.80025055741858    6.64020587188096
H         4.55953874353849    2.90247309696886   10.19111345194317
H         5.24576968016399    2.48919548776452    8.61702692237892
H         3.78924689698853    3.47577898040163    8.70156783685549
H         7.14403744237450    3.60261787369600   11.72410696547345
H         5.44939938719266    4.04106833645845   11.97783446216528
H         6.72855646773666    5.18293788823020   12.39733561130734
H         8.36343173547349    7.79790420250169   10.18495415023302
H         9.23089582766149    6.26914011277919   10.35369558651639
H         8.09113795800289    6.78269405678049   11.60452294726517
H         4.34369385396380   10.30881429183461   12.23982627996716
H         2.87379575202390   12.28567121962258   12.19105396375942
H         0.55173880680054   12.08509830503538   11.38550725231458
H        -0.30909646054525    9.89403293042007   10.64270182990539
H         1.16136834259030    7.90745912563604   10.69021873494296
H         2.99061517199183    4.60741525870669   10.89551605125236
H         1.38000707241622    3.06112037627802   11.98309615257289
H         0.14527227327477    3.79281552964122   13.98813233981538
H         0.50879330629602    6.05183563672706   14.90596484710456
H         2.12589028570214    7.58252981653541   13.82455246789788
H         4.38898588558958    6.32999773961643   14.32721451237088
H         6.11106018723794    6.76239137136239   16.03190426291939
H         7.91351708674740    8.38700660627905   15.59340592576631
H         8.01022100040439    9.55992383187953   13.42283825190778
H         6.29481738343729    9.10435892333290   11.69583285862813

