50
CSD_code = FUQQAL | q = 0 | S = 0 | Stoichiometry = C16H30AsCl2Rh | MND = 8
Rh       28.60167437213342   12.51582682885703    1.54514552511565
As       26.31665140210762   12.10852324186761    2.09218576837051
Cl       27.59996248932032   13.59205153005948   -0.26396866485420
Cl       28.26761662066831   10.41518667306531    0.59710990596955
C        30.58199069563067   13.50286351689649    1.36969585020236
C        30.78636138046586   12.18024219580679    1.82481234593341
C        30.07076847922911   12.02163738148371    3.06965211697528
C        29.50762702218558   13.29043452162782    3.42201534779118
C        29.76774959848859   14.19246370032042    2.34756368994735
C        31.18587137540221   14.17078337237645    0.17617972338641
H        31.68098338946894   13.45064099348963   -0.46996128136502
H        31.91613217879562   14.91373547969805    0.50224138416173
H        30.41851646948615   14.68032663175286   -0.40561535587007
C        31.64828250099775   11.12046295608537    1.21973602507761
H        32.42419679762297   10.83358788240287    1.93075003400000
H        32.11975089935353   11.47179764007231    0.30577688394091
H        31.05988720839857   10.23380087443725    0.98237273125669
C        30.17352593609745   10.81278044497119    3.94492536738757
H        31.15433736704545   10.78858159584778    4.42440995877605
H        30.06037977099991    9.90490675035471    3.35550454185072
H        29.41201331543386   10.82109789068782    4.72178106420967
C        28.88842294591728   13.62925465316511    4.74117855491156
H        28.24825769008297   14.50546266119657    4.66497911556764
H        29.67928004000532   13.84471679525255    5.46269825995745
H        28.29804240598830   12.79790326133623    5.12632236886733
C        29.51579211380671   15.66660451993091    2.31253073143795
H        30.46304912906010   16.19715199182900    2.42592952695996
H        28.85019850451317   15.97849838857707    3.11377729065572
H        29.07935700540126   15.95980583116881    1.35880035174614
C        25.44753799164902   13.50165169769928    3.19661614139125
H        24.38312274500140   13.26492329744029    3.29871311909660
H        25.89392093962599   13.48328955617181    4.19579664143240
C        25.62268743822877   14.87551048710430    2.56287088733007
H        25.09547246447279   14.92454990056501    1.61035667454504
H        26.67871655370026   15.05965112233771    2.36100697214314
H        25.24133129242003   15.66407492112203    3.21161005928274
C        24.91816532106120   11.92794693920530    0.72901965949179
H        23.97124786795550   11.84721169942674    1.28051340155834
H        24.90827010552017   12.86287334606027    0.16127696851147
C        25.09205594609608   10.75197876054733   -0.21985754562968
H        25.19804605483163    9.81667136782957    0.33180603387592
H        25.98747406893416   10.89180957502928   -0.82186310386951
H        24.23537027251783   10.67279198065504   -0.88844816706023
C        26.09114798093877   10.50575923104165    3.22832575326151
H        26.53716100242002    9.67009227079184    2.68111650717822
H        26.69908358519051   10.66838003902058    4.12558990183215
C        24.65830630465540   10.17651310326143    3.62663270235580
H        24.04842172223121    9.97180423772217    2.74785520024216
H        24.20594091340663   10.99959068561554    4.18061184580682
H        24.63934032503608    9.29149557673334    4.26212118486830

