55
CSD_code = FUQTOC | q = 0 | S = 0 | Stoichiometry = C27H26IrN | MND = 6
Ir        1.74406805491840    5.74801603505013    3.23944824669441
N         3.12902837943965    7.33911211095045    3.55755402696946
C        -1.25045276767381    5.81219675807661    4.04458437776280
H        -2.01849987046654    6.57287413934578    3.89198186495204
H        -1.56796492534248    5.19916364047593    4.88913419593306
C        -1.13807735180015    4.95456721415660    2.77150265369264
H        -1.85357710691008    4.12637456866167    2.80808382812895
H        -1.39729421767800    5.56719655207166    1.90570027900777
C         0.25466982745432    4.41021459971608    2.54248308536166
H         0.42574856499506    4.13331466798259    1.50519155885008
C         1.02083396551053    3.74188027426366    3.50873851772177
H         1.74933157802920    3.02205064728768    3.14518156213119
C         0.50391611014645    3.44928103523297    4.90440365121781
H         0.94368588191308    2.51579033249476    5.25862274445845
H        -0.57507185653259    3.29751342983320    4.85509064442714
C         0.84314660758260    4.56964506564252    5.90347103055206
H         0.07419093097602    4.62688045177632    6.68162152633234
H         1.78524738876129    4.32896036355629    6.39948924330654
C         1.00061419347165    5.92302171595872    5.24613748638626
H         1.63067913102839    6.59293410084892    5.82888159518469
C         0.05883720837543    6.48865839439763    4.38723395548217
H         0.03160248744951    7.57229937773661    4.29926017899737
C         3.10892791362569    5.38616498703645    1.63484881277602
C         2.36971109931875    6.12522266307260    0.58539001368299
C         2.11181217120411    7.48394273489237    0.42308157158607
H         2.51573736898862    8.22021391393167    1.10499414324115
C         1.33714579051816    7.90478595937093   -0.64324688919482
H         1.13838922641985    8.96007466787904   -0.77139717429693
C         0.81218598315390    6.99668797265202   -1.55515094463386
H         0.20176408844516    7.35402202596035   -2.37229020326756
C         1.08369339797469    5.64623354157682   -1.43350417780970
H         0.69755848820500    4.94115981234743   -2.15592442870545
C         1.87274330419974    5.21283304829097   -0.38012679708507
C         2.37773099965267    3.89992454373044   -0.05688817756503
C         2.23205894144723    2.68008991543794   -0.70077193654313
H         1.61734178883458    2.59495441606434   -1.58554877201013
C         2.89701185355616    1.57710041330150   -0.19897243017136
H         2.80141339998334    0.61982579688989   -0.69126238804213
C         3.69995746558256    1.68802654241425    0.93130346841050
H         4.22164127092881    0.81508680174709    1.29837031627850
C         3.83871716444533    2.89541117912019    1.59106555211824
H         4.45671300848879    2.96036338861000    2.47640169611758
C         3.17064419065315    4.01290173509680    1.10845021360234
C         4.45096283181023    5.96829827236699    2.09755550735896
H         4.91967439447858    5.25587066844006    2.78323211448618
H         5.13037679056205    6.10631543582224    1.24966715192110
C         4.24610359833046    7.25556040855234    2.81217398789434
C         5.13648029966556    8.31739699215894    2.70118091205130
H         6.01620452892612    8.20638639023121    2.08660953489469
C         4.88160212926302    9.50013884659503    3.36949911905007
H         5.56029376380576   10.33601555511179    3.29683548612889
C         3.72315566120353    9.58533683675735    4.13041321396456
H         3.47183819278548   10.48670653604023    4.66606547943981
C         2.88701500516640    8.48940334683145    4.19229034631838
H         1.98233167472733    8.54059917615245    4.78005942445345

