86
CSD_code = FUQYOH | q = 1 | S = 0 | Stoichiometry = C32H47ClNP4Ru(1+) | MND = 6
Ru       14.10659458908769    2.26899164707833    3.93192803738355
P        12.08771172374311    1.25415819945677    4.73380969074905
P        14.77412102282945    2.82879836542780    6.09424383818021
P        15.45593597734483    0.40489715394681    3.55850178001425
P        15.61212609125276    3.83632351600884    2.96271882676529
C        16.13857666295249    3.70320719903497    0.17635865124738
H        17.05201045927502    3.17689818083435    0.41084863764313
C        17.05778417424728    0.20585868583476    4.42938766641997
H        16.91394428083313    0.17685442747429    5.50803115355103
H        17.68710801850900    1.05903716880852    4.18135747237973
H        17.54533533962620   -0.71001352767615    4.09425141215434
C        16.08467716785914    0.33571119251793    1.82769313437157
H        16.53735313707385    1.28997922679028    1.56837596067782
H        15.27919964749199    0.13475341973741    1.12503567224968
H        16.82570043269547   -0.45935344166387    1.74533275142608
C        14.59999419939534   -3.47905036897519    4.63885024109611
H        14.89601550437072   -4.17980778689896    5.40490988839222
C        10.77473184536069    1.26969948717904    3.46096963803258
C        11.26087521748491    2.09632055624779    6.13176319171303
H        11.18183172428506    3.16544843656713    5.95205565920472
H        11.84493202632428    1.91956245758373    7.03588214117691
H        10.26527714698702    1.66791736365755    6.25297481926966
C        10.66070807953954    0.18355413894131    2.59295765428081
H        11.32124254998300   -0.66544438843231    2.70572814016667
C        14.53019222710557    0.24488320334154    7.04661433219881
H        14.62083080561754   -0.00410652873479    5.99573053511988
C        15.14941174039566   -2.20811222382996    4.62521011424850
H        15.86809404613869   -1.93884785329813    5.38386722799017
C        15.28606411262736    4.13744909483242    1.18725019159405
C         9.90058878698178    2.34206442735906    3.31799590229097
H         9.97737695292385    3.19818092450939    3.96945143131744
C         8.82049344545072    1.24052104580375    1.47543657721767
H         8.06099940801390    1.22860119908429    0.70906078335421
C        16.53582226330113    3.21095147470871    6.46665691412683
H        16.80481110117275    4.16638875453810    6.02057267733598
H        17.19045653290174    2.43225767400087    6.08570829637688
H        16.65100373679931    3.27674146619747    7.54878356301929
C        15.83935159657742    3.96285038999681   -1.15049903693563
H        16.51515768682338    3.62947095863920   -1.92363187448853
C        15.50389199272861    5.56271338030951    3.57002019002714
H        14.46694881641772    5.88625899677363    3.61450348129001
H        16.05792538089129    6.20707839067062    2.88688412476894
H        15.93962374303952    5.62905534779717    4.56569292515599
C        14.68718810514959    4.65327173012843   -1.48587907518805
H        14.46140585635717    4.85813311918835   -2.52083272206513
C         9.68897134040804    0.16915253353010    1.60878510306236
H         9.60495710718095   -0.68222370201998    0.94944892331840
C        17.44628336709417    3.69624055336508    2.97773237368598
H        17.79256605719735    2.74327730981297    2.58698456241354
H        17.79943546881064    3.79559708961351    4.00176556392123
H        17.86265563435656    4.50599635472734    2.37869757781254
C        14.01607720529953    4.34235963435981    6.79102266797854
H        12.99084559852573    4.14446374698570    7.09596440576656
H        14.00023151911084    5.11104977197348    6.02036959757032
H        14.59887829026981    4.69575542176485    7.64074074909431
C        14.41992512254734   -0.74761126332383    8.00429846735006
H        14.44173941041548   -1.78716698472058    7.71119252059776
C        13.85535510901188   -1.68516875022657    2.67796551059347
H        13.55967645975931   -0.98727736570596    1.90607650935428
C         8.92869934279116    2.32263187851031    2.33229456739373
H         8.25185694419862    3.15791659625567    2.23605288727051
C        14.50394593244356    1.58569935860890    7.40440684638659
C        14.27185170968997   -0.40217866011032    9.33702097561538
H        14.18182034192697   -1.17024316913344   10.08953847536498
C        11.86732492701062   -0.46616069063925    5.35204821854176
H        12.23908340381001   -0.52475191428529    6.37226853899549
H        12.39902651994619   -1.19276913230366    4.74543968073191
H        10.80266892291348   -0.69858639317274    5.34445557678836
C        14.78387982339407   -1.29571328946991    3.64072983031915
C        13.68107495218801   -3.85714917545947    3.67510258285212
H        13.25706909032194   -4.84901867450223    3.68797575243394
C        14.12376799352487    4.82638883873133    0.83938713145983
H        13.44813456979755    5.16167028969149    1.61359848491744
C        13.31093812591320   -2.95582644820006    2.68998110195677
H        12.59914102554725   -3.24517999226605    1.93089552523503
C        14.23461579797798    0.93427272918678    9.70241544090954
H        14.11406624059794    1.20531405621113   10.74037023192454
C        14.35563479130678    1.92644730396205    8.74591652966699
H        14.32860690279598    2.96110063246144    9.05177403132535
C        13.82964317894044    5.08476245732954   -0.48645650102174
H        12.93190493820095    5.62814956800099   -0.73973453688012
Cl       12.58681272323081    4.09699276086241    3.90761466276609
N        13.24539645281435    1.99031036442689    1.88305521098793
H        12.59422710499342    2.78356344442666    1.85260711514989
H        13.88833196172717    2.09727583293387    1.09843762933195
H        12.68905323604477    1.14623079628580    1.74069685974942

