48
CSD_code = FUQZAT | q = 0 | S = 0 | Stoichiometry = C15H28N2O2Zr | MND = 10
Zr        1.96869076728109    3.54331016699396    7.20389200549178
O         1.98758421051819    5.29097003837813    6.40947328250657
O         3.80191969050328    2.94790292097054    7.41403260803957
N         2.56511266051302    4.85388068661261    5.17897404976246
N         3.65446772616322    2.51814781983216    6.06976906775918
C         0.41074513241744    2.77661294545552    8.96632047419371
C         1.71618140074192    2.69564466562461    9.52398297838752
C         2.23380066640341    4.01353715166073    9.64067333841240
C         1.24665570015117    4.91552295605385    9.16879905690423
C         0.12662501125976    4.15477876272835    8.74140938398155
C        -0.57039135873114    1.63754090906237    8.86202286220207
H        -1.08576283965551    1.49369605302578    9.81577140781125
H        -0.06996144670050    0.70162204146319    8.61054098427270
H        -1.32556139316169    1.83236874417972    8.10194288002123
C         2.42888797686693    1.45570621801698    9.99274609034752
H         2.45859819531806    1.41629638241865   11.08472794508310
H         3.45928541019618    1.44756950268918    9.62996459893080
H         1.92651182038817    0.55513513994415    9.64060331982763
C         3.58303564658839    4.34773310682075   10.21950975918786
H         3.65585271592589    3.99721914445711   11.25212647655495
H         3.75729281497328    5.42298173959613   10.21148248735423
H         4.37532226681241    3.86423570604184    9.64075478884480
C         1.29825464748440    6.42022582581843    9.17549513432525
H         0.37508675676237    6.82634361565567    9.59298819197908
H         1.41288937982775    6.80995196966131    8.16007873690273
H         2.12919937098608    6.78006422723062    9.78053815770885
C        -1.15123837783938    4.75341946003611    8.21760596634483
H        -1.67142243985061    5.30535867631423    9.00487865947169
H        -1.82641292439721    3.98230357227056    7.85044678063488
H        -0.93934373903254    5.45022855370433    7.40203344234538
C         4.00373752451565    1.10693783138208    5.97792696914905
H         5.06478757895292    0.93604569212255    6.21236321440317
H         3.79241777191613    0.74702374704895    4.96997862724693
H         3.38927621332121    0.55862219526236    6.69685606111710
C         4.49221923676158    3.35055711498164    5.20684191861173
H         4.36096831487452    3.00346360401305    4.17627718705000
H         5.55651529837772    3.27449236546550    5.48704398210793
C         4.02582591259285    4.81169384217748    5.32783533686945
H         4.28167745205596    5.18933191682512    6.33334574652929
H         4.53432672494867    5.42531633823988    4.57439862428531
C         2.12314731839040    5.74559604008585    4.11857268856416
H         2.45912112206861    6.78046496997690    4.27758014055538
H         1.03310320536561    5.72928383880818    4.10122162255692
H         2.50211180974377    5.38068315183385    3.16378214493612
C         0.69675674986836    2.34419915719833    5.80518587171702
H         1.07210071021648    2.39856958751538    4.77013735355716
H        -0.34133578705746    2.71131954302299    5.77762147005907
H         0.64873739437215    1.27329036132569    6.06514612508470

