48
CSD_code = FUQZEX | q = 0 | S = 0 | Stoichiometry = C15H28HfN2O2 | MND = 10
Hf        6.40460090728215    9.72220376544560    0.83301044578121
O         8.07270718448996    8.86979607850501    0.55191837594317
O         4.90277084074848    8.73067181798431    0.26625544357628
N         8.04001985378486    8.76637758590303   -0.87273396784083
N         5.37514308327477    8.16159727180308   -0.95229197992317
C         6.38045657281429   11.24734651187012    2.74825331654847
C         5.14454148949834   10.53909938311132    2.77035053903475
C         5.42039761822873    9.17422536386582    3.04632965998733
C         6.82641717429831    9.02864426989173    3.17336108232983
C         7.41685428379631   10.31030252862103    3.00406930956463
C         6.54344587131537   12.74243019959217    2.68273201277925
H         6.54631341446832   13.16791798085056    3.68950115806802
H         5.72871962737333   13.20626138742916    2.12949755769528
H         7.48076169197050   13.02040105755888    2.20209108919432
C         3.76191230282972   11.11782290930852    2.66025841198449
H         3.27004408868369   11.12570375740000    3.63605655528454
H         3.14873693214755   10.52277490371956    1.98249005524795
H         3.78949055937718   12.14148521088167    2.29273127755574
C         4.36175025873645    8.13487595079900    3.29377254454874
H         3.74499344116730    8.42275568599637    4.14771367158510
H         4.80319314823529    7.16415839603970    3.51028326677731
H         3.70657806385129    8.03181919061065    2.42765054402407
C         7.59001291968155    7.79675032416312    3.57811975459182
H         7.97335683632239    7.90355454946534    4.59575923893481
H         8.44238157908036    7.63791467686240    2.91633835686261
H         6.95916106308871    6.90990095094556    3.54889751411011
C         8.87721296928285   10.60514771595386    3.19955235267094
H         9.15744064054575   10.46710093958816    4.24640101076896
H         9.11179891966674   11.63030002269579    2.92182245952532
H         9.49082924515823    9.93399247019274    2.59817037401194
C         9.35411467764396    9.11729566471805   -1.38777490479533
H        10.13306242525255    8.42426493733748   -1.04176404081622
H         9.59545082870081   10.12120261870396   -1.04152646234982
H         9.32091424118340    9.10973125916822   -2.47640091473971
C         7.67996588310237    7.39485254591256   -1.22535612129735
H         8.42430182428196    6.66948311426987   -0.85655346601298
H         7.63470122701694    7.33994821185308   -2.31634973455514
C         6.30355551209050    7.07027619626391   -0.63160347227139
H         6.38935878521983    7.00582850791015    0.46625809447861
H         5.95416930626423    6.10493508980371   -1.01666329909479
C         4.23036935169836    7.71347775991382   -1.72736510376407
H         3.65937976150781    6.92694150271671   -1.21561223754972
H         4.58119516992766    7.34297247178772   -2.68963003460768
H         3.57894559434062    8.57042617753214   -1.88993141292687
C         6.35313860654609   11.39938340471426   -0.55485556042818
H         6.29628204697281   11.02604284185619   -1.58404470900870
H         7.24723072520760   12.03224600367289   -0.49342676816715
H         5.48502145183257   12.05155883482875   -0.40296128332875

