73
CSD_code = FURDAY | q = 0 | S = 0 | Stoichiometry = C30H39N3Ti | MND = 8
C         0.49877565216059    5.46197883788179    1.72025916915555
H        -0.24999767583550    4.82566353067553    1.23909023335865
H         0.94631438169713    6.10950626097979    0.94957528096734
C        -0.09751676261030    6.30564919059456    2.86566119673109
H        -0.43904377296421    7.28179026935164    2.52594137539116
H        -0.93838322781716    5.77066356573751    3.31003819997414
C         1.05061023873897    6.38927671177247    3.87669294052296
H         1.66489950456468    7.27824204914911    3.70573805672402
H         0.71656260903112    6.38267988111276    4.91379339000391
C         1.83824940590015    5.14379318609848    3.52533450609956
C         3.17393523941161    4.63829860418602    5.50115849792066
C         3.59006193167777    3.48377469358710    6.17685607543938
H         3.46885472710975    2.53604124801677    5.65451066855177
C         4.11594385014430    3.55392396012703    7.45244857253528
C         4.24630575612600    4.80028827892482    8.05807965723588
H         4.66139000331999    4.86721383982165    9.05360075914800
C         3.85946135516709    5.96039193775152    7.40222133821188
C         3.32328823590522    5.87867654759278    6.12504140756202
H         3.04506522205712    6.78534147108909    5.60830477625442
C         4.56321470650466    2.31319483408356    8.16677970646334
H         4.12153904819898    1.42798617255712    7.71613742382465
H         4.28279422829735    2.35170473599537    9.21724634843484
H         5.64875593449326    2.22125466802568    8.11536964575243
C         4.00407268722362    7.29140768988888    8.07963490532537
H         3.17972666213304    7.44655542390560    8.77638491602907
H         3.99302219867639    8.10269312272287    7.35554132271353
H         4.93204937332584    7.33738641782260    8.64569659781168
C         0.40098367150221    1.10566121111608    3.67523797518438
C         0.17089427507562    0.40161416038658    4.88881117533882
C        -0.87537572946447   -0.49178381070124    4.98409050428362
H        -1.03671437946010   -1.01985836435845    5.91473932228744
C        -1.72151170476724   -0.72230382234349    3.90965103149429
H        -2.53533413318943   -1.42661576133414    3.99829498259952
C        -1.51551770766417   -0.03743994922934    2.72309229056194
H        -2.17644696446240   -0.21008074113208    1.88349501401355
C        -0.47999818992096    0.86657533172954    2.58396444921735
C        -0.27927192440210    1.60718239239351    1.29025735186421
H         0.58802156095009    2.27924675382951    1.38611843660489
H        -1.16787598972306    2.19255351749563    1.04778208469103
H        -0.10916847452908    0.90732468304758    0.47113723645177
C         1.09294554090130    0.66617043612400    6.04152160098380
H         0.76291222115712    0.14176235232680    6.93541899493403
H         1.13377117185373    1.73892549079627    6.24400172722363
H         2.10493447072572    0.33939500400859    5.79143046804815
C         3.58651912577756    1.45454927613993    1.56046537224786
C         4.39212437379079    1.64217307504429    2.72755147627279
C         4.89357657123959    2.97559095788476    2.70562488139828
C         4.37645553527353    3.61448386325057    1.55447619306161
C         3.57108699296512    2.68430072380125    0.84400906127317
C         3.02795308818319    0.12403523782012    1.13337672663598
H         2.51649136202965    0.20070915694862    0.17585425837023
H         2.32082408346297   -0.25992551984415    1.87203626177208
H         3.83790024423818   -0.60191738535667    1.02684345668552
C         4.79264415671248    0.52979776770106    3.65759938686127
H         3.93140149509379   -0.09705566129132    3.89573831494519
H         5.21239917251051    0.91713363024904    4.58553276220185
H         5.55011512014293   -0.10247526430538    3.18460802701109
C         5.90986461000741    3.56780335616856    3.63995056805418
H         6.89897605664308    3.55553378304848    3.17309018866905
H         5.96938174986097    3.00705661800150    4.57164490335913
H         5.67209966996311    4.60378706361241    3.88692848112809
C         4.71984914076278    5.00364757861025    1.10222382899204
H         4.82464867216507    5.68059495516183    1.95171917954964
H         3.95383509605230    5.40115208085636    0.43673799830207
H         5.66943330477911    5.00558032564934    0.55896102690126
C         2.94123231471479    2.94195295516363   -0.49768684558247
H         3.71429390009959    3.04460304410634   -1.26427329806818
H         2.35187859594899    3.86193036948791   -0.49063969650183
H         2.28486320896894    2.12274687312974   -0.78796999324136
N         1.53287674409065    4.65680075183428    2.33922172600465
N         2.70277635217808    4.43518071724235    4.22471114420334
N         1.41073722956039    1.96275050234794    3.56470218101608
Ti        2.58246280556695    2.97277315394138    2.88268081455445

