65
CSD_code = FURGIK | q = 0 | S = 0 | Stoichiometry = C28H28N2NiO6 | MND = 4
Ni        5.57512968768674    2.08406860024848    4.61686103365967
O         0.15805386551715    5.51193159754070    3.43162632935791
O         3.91757118891695    2.85553802440569    4.57825460585633
O         6.22842984611201    0.82258117068523    0.20063396535777
N         5.91372059039421    2.65132838098161    2.75852016514645
C         1.36668147624585    4.94740884811430    3.18188524973197
C         2.05410885594690    4.13998597201507    4.05816467398920
H         1.66284542820528    3.89031911709244    5.03198581873694
C         3.31878766430150    3.59960095217742    3.72164587714574
C         3.85959439075550    3.90965545288990    2.44069381404952
C         3.12734448534313    4.73222686955980    1.56406311164118
H         3.54739185794057    4.95804452652346    0.59419252088575
C         1.91370678002082    5.24539560190740    1.91501398283756
H         1.34791102051230    5.87875844582481    1.25198340841510
C         5.11041049719190    3.37877614600884    2.04960133496926
H         5.40851154989666    3.61785945311452    1.02523477174526
C         7.09729549166730    2.16550306672341    2.04523889764935
H         7.37223528442667    2.87126684065039    1.25177791027742
H         7.91966036597119    2.05775898757284    2.75245358688495
C         6.79040104277305    0.83674177989280    1.43460997348891
C         6.90687015119566   -0.43484925890752    1.90710917727922
H         7.30502143918960   -0.72852284061808    2.85580098609790
C         6.39088502040241   -1.28140981195128    0.89389366924441
H         6.32691902681711   -2.35012592632000    0.92123279525951
C         5.98970958908080   -0.46816439826296   -0.12278379916130
C         5.37598977258378   -0.76311612274509   -1.44452583125855
H         6.00826372677800   -0.39253792422928   -2.25080496398239
H         4.40464367647363   -0.27704434118186   -1.52919423978759
H         5.24828738931445   -1.83539740024417   -1.55660787394166
C        -0.45415672922132    5.27310214894239    4.67600403868184
H        -1.39353994449556    5.82326922317497    4.65371232456481
H         0.16243428923938    5.64008815403206    5.50252688665206
H        -0.66032926042680    4.20829303489112    4.82280884364313
O        10.99222894646586   -1.34373598356034    5.80210989597125
O         7.23270475286033    1.31264639674681    4.65548645392711
O         4.92181094823779    3.34562257381698    9.03313113714867
N         5.23657374531352    1.51686043251567    6.47521596982501
C         9.78358421636971   -0.77924633779668    6.05183957124195
C         9.09615656199856    0.02817421274377    5.17556160642061
H         9.48741126962401    0.27782473507450    4.20173313070596
C         7.83153302245253    0.56865678441913    5.51212449358213
C         7.29069578448002    0.25853952697165    6.79304981192732
C         8.02290277757632   -0.56410007453230    7.66964862736643
H         7.60292081477899   -0.78979090777497    8.63958223420721
C         9.23656292706072   -1.07722986896797    7.31871188351169
H         9.80241434492224   -1.71050972065033    7.98178270314366
C         6.03988014645720    0.78941061010817    7.18413776189478
H         5.74178954475631    0.55035285713009    8.20851306091225
C         4.05300730316161    2.00270172316607    7.18849845334541
H         3.77806548363155    1.29694435781672    7.98196262016138
H         3.23063644334706    2.11044624593542    6.48129097239856
C         4.35988969215485    3.33146170656610    7.79913354716839
C         4.24336353886141    4.60305244148727    7.32665453924364
H         3.84521380399744    4.89672179013518    6.37796330509119
C         4.75945769766666    5.44960652692187    8.33981913846222
H         4.82342613425740    6.51832254502527    8.31247170244290
C         5.16054810549375    4.63636875290988    9.35653736853112
C         5.77421843244491    4.93132544709678   10.67830176878724
H         5.14194313710290    4.56073296580272   11.48457612526976
H         6.74557288922047    4.44527208706897   10.76297703543575
H         5.90190702075307    6.00360862258942   10.79038431209473
C        11.60443468963299   -1.10490445382601    4.55773034278888
H        12.54382661921228   -1.65505589922364    4.58003056598714
H        10.98784798100665   -1.47192184176672    3.73121904625441
H        11.81058170794278   -0.04009262445729    4.41090776963419

