26
CSD_code = FURHIJ | q = 0 | S = 0 | Stoichiometry = C10H10Cl2N3V | MND = 5
V         3.87574831325005    2.31006914505637    0.00435305695040
Cl        2.21801981248113    3.48411814568979   -0.65910379614073
N         3.87611267227427    2.30983424249489    1.60044585640544
N         2.71323649368659    0.65411815958489   -0.20126439690404
C         2.42821503193962    0.28763916796592   -1.44360095068911
H         2.82191565334660    0.91093216800866   -2.24040428594109
C         1.66592853224160   -0.83058014743002   -1.73743751995465
H         1.45874909457945   -1.09146067614794   -2.76372275423486
C         1.18062148648544   -1.59928081095022   -0.69053934788581
H         0.58322608712306   -2.47793902497118   -0.88329467072455
C         1.48006037418650   -1.21274229683693    0.60602322597879
H         1.12405445208280   -1.77930119450194    1.45186466200486
C         2.25081970002526   -0.07729248505291    0.80606754424247
H         2.51756298299836    0.27466239131854    1.79824457523840
Cl        5.53325495635732    1.13623157580771   -0.65979088587666
N         5.03852420610802    3.96587298428128   -0.20127764771488
C         5.32326631926693    4.33256073741934   -1.44360044538383
C         5.50048568386596    4.69755359468575    0.80605477955952
H         4.93011907077040    3.70892256052214   -2.24043014988990
C         6.08491848918264    5.45120910128658   -1.73744039184805
C         6.27044963724978    5.83352997618836    0.60600480838852
H         5.23349278402835    4.34567092892120    1.79821797282928
H         6.29198877770049    5.71214281793788   -2.76376046818119
C         6.56974420686338    6.22020202856300   -0.69053567671506
H         6.62591582493835    6.40048220089450    1.45180799764289
H         7.16656935696851    7.09924470926551   -0.88328109115714

