46
CSD_code = FURHUW | q = 1 | S = 0 | Stoichiometry = C18H24NPtSe2(1+) | MND = 6
Pt        2.20539532053646    7.74425315558220    0.92781409614162
Se        0.48816453015630    8.76249867058209   -0.89220080707882
Se        0.56958955293379    6.31297360504584    2.50496780471856
N         1.44493382494009    5.93242186915400   -0.37789230088764
C        -1.33426926143616    7.98900750848997   -0.69611774751377
H        -1.92602436617920    8.40174519327893   -1.51520644540147
H        -1.24153240083368    6.91125846965335   -0.82925875862526
C        -1.90224033090106    8.39420635686072    0.62504974825041
C        -2.45495320625211    9.67022812369000    0.72352863333464
H        -2.46675193132995   10.29926555278403   -0.15574373643506
C        -2.97894527183388   10.13807907087989    1.91186588063809
H        -3.40113818275576   11.12914888888402    1.96153177903724
C        -2.95479389752927    9.32829562513041    3.03607823009121
H        -3.35831605895011    9.68153511346538    3.97159327501543
C        -2.40669349989604    8.06399093853711    2.95404732730121
H        -2.38110130123140    7.43032988583933    3.82967921702293
C        -1.87745435825727    7.57718691698978    1.75982208268491
C        -1.27846503876693    6.20855654103280    1.77774767303781
H        -1.21123843662103    5.73880020300404    0.79664404462003
H        -1.83141787600106    5.55256218290026    2.45229996522904
C         1.29660736622505    4.66453187260834    1.68042969984900
H         2.30983542994515    4.55958944017304    2.07537927729714
H         0.70053951919842    3.81826886496955    2.03011170824637
C         1.28923590522355    4.73518630575236    0.18764804872143
C         1.04001907189073    3.60180925722642   -0.57757929554531
H         0.92496987803550    2.64209289291552   -0.10037129829123
C         0.93346558371814    3.73273414047171   -1.95244086987876
H         0.75589672074498    2.86805630982938   -2.57209013944702
C         0.99586146193270    4.99781285113509   -2.51322665713314
H         0.84620446556398    5.14462889188953   -3.57059374871684
C         1.24447666969225    6.08756226614798   -1.68684974925949
C         1.19652449056959    7.48151558859235   -2.22435599200544
H         0.56372162416279    7.53039786559806   -3.11363300646908
H         2.19024876705320    7.85064342984295   -2.48832157769764
C         3.68476477817395    8.53630378335379   -0.28077114299228
H         3.27494002255099    9.37546532452451   -0.85019594418333
H         4.00158101519170    7.73787651545742   -0.95669474526807
H         4.55517912939939    8.89042809633203    0.26518517486833
C         2.38300650013144    9.38387406840565    2.14294468489006
H         3.31700963650369    9.93157449701751    2.06055544582928
H         2.24274420470763    9.05770381170748    3.17450434103794
H         1.55413303515426   10.03163032977346    1.84363641573908
C         3.74731087486078    6.90164482454784    2.02070509897176
H         4.55193849355371    7.59928407665840    2.23734836574523
H         4.14618117016790    6.07591642240451    1.42631260151875
H         3.35775637585660    6.52892440088136    2.97221334299222

