87
CSD_code = FURJAE | q = 0 | S = 0 | Stoichiometry = C40H40MoN2O4 | MND = 6
Mo        6.78315403559475   15.23926383072854   11.09083862075078
N         7.62216528432497   16.57780565086195   12.49035549200100
N         5.11020147505067   16.31739096158359   11.79262554394604
O         9.54213397042002   14.00148979587752   10.43847999158944
O         5.03937008186515   13.53369607231851    9.18781946053883
O         6.54433305359930   12.73735761684776   12.90087747156078
O         7.32977056918649   16.84159325981802    8.49701874623317
C         6.76879793446723   17.36695591614551   13.07002461480562
C         5.37897825778150   17.22216961847516   12.68482785584191
C         4.59241014451832   18.18539494385004   13.44475580675622
C         5.52627324741603   18.87851427256047   14.25787501465555
C         6.85720204232348   18.42344017746768   14.07004295267031
C         7.86354435466761   19.01319616966926   14.79826892134137
H         8.89429849449237   18.70794135621895   14.69628467678935
C         7.52386736777232   20.04136441936170   15.69732437120329
H         8.31955509880531   20.50011479587392   16.26635460506602
C         6.23419356545445   20.47878270238227   15.87799767640552
H         6.02185401101036   21.27129230271163   16.58053324201494
C         5.17396107402138   19.89603845726204   15.14642719158423
C         3.79928793591405   20.22050099483097   15.20833763632447
H         3.46737780148751   20.99994848924445   15.87841401942241
C         2.89260882365109   19.55028904897425   14.42346328270214
H         1.84652066860306   19.81311580060886   14.48668222485190
C         3.26319324464213   18.52686828377828   13.53123811146475
H         2.50859864610158   18.03277701332955   12.93748304844499
C         8.98324403560864   16.68240618483776   12.84466380205287
C         9.81971282182859   17.55459994083991   12.13587705148448
C        11.16011902890116   17.62544018485262   12.48745503889597
H        11.81567963700835   18.29118029100011   11.94769148235507
C        11.66669911099054   16.86639359538973   13.52393367878268
H        12.71177150512955   16.93544421836145   13.78612957216638
C        10.82840906524242   16.02681111556124   14.23070231837236
H        11.22562399790582   15.44719790356924   15.04958136160409
C         9.48163969947430   15.92460659128729   13.91276694034881
C         8.58747188612444   15.01713656907873   14.72598215385084
H         7.58168606461372   15.01891883881458   14.28693180546943
C         9.10994422311532   13.57931660445465   14.69789571088634
H         9.26636173367571   13.25553279351407   13.67054436716126
H         8.39095005765127   12.90996463749657   15.16493509895744
H        10.05258086537691   13.49454359748825   15.23240117440530
C         8.46494826674684   15.52715984195664   16.16447323771146
H         8.05349744778452   16.53521155919429   16.18106730652164
H         9.43622498259000   15.54457359040959   16.65300958019469
H         7.80551732355440   14.87686738985781   16.73530364786911
C         9.29232569625086   18.42213622940408   11.01643015704661
H         8.23382656306056   18.18556725461966   10.84957006402536
C        10.04801053383816   18.14122595191121    9.71601315179793
H        10.04191764577968   17.07430322310481    9.50030249998058
H        11.08107704319114   18.47234672421375    9.78415068405269
H         9.57551015178855   18.66343068023986    8.88707967429755
C         9.38072744367658   19.90350487461641   11.39315354141118
H         8.80739934137980   20.10464925740706   12.29685853097712
H         8.98125428275877   20.51690198191060   10.58833614143230
H        10.41267712439665   20.19787122887717   11.56840228042430
C         3.76990794239603   16.14623001471186   11.38888640112604
C         3.26797048918111   16.89467382436991   10.31596185204323
C         1.95353430531167   16.69264815033582    9.92000193094317
H         1.55517301642547   17.26068357514542    9.09360741057630
C         1.14323227366454   15.78486018133419   10.57301942998682
H         0.12224720580589   15.64101687045279   10.25271068977487
C         1.64115998178011   15.06984580697156   11.64445577508357
H         0.99946883214726   14.37331214301220   12.16154842570459
C         2.94944997006261   15.24037484177361   12.07402109261955
C         3.45206333409641   14.46564672280931   13.27038147215420
H         4.51778723015874   14.68369565906977   13.41516120565688
C         3.30743710800643   12.96028060711438   13.03854402165543
H         3.77119761795174   12.67850324714078   12.09500420786509
H         2.26122259803380   12.66712767059907   13.00850467743556
H         3.79387560054803   12.40908946321972   13.84018668713395
C         2.71514483948865   14.89763796888396   14.54112375135617
H         2.85578971788885   15.96189455357733   14.72363869085630
H         3.09757757118383   14.34803195877138   15.39856624913234
H         1.64899109980279   14.70166798867311   14.45602447325009
C         4.11701734143391   17.91883359377407    9.59865113812769
H         5.13588329922398   17.88652815408888   10.00517015695417
C         4.19714844420582   17.60260288392222    8.10379081594713
H         4.50939960070921   16.57078681239048    7.95341154866267
H         4.92037558206126   18.25582083350040    7.62069061282448
H         3.23356505895480   17.74419164138389    7.62112990932105
C         3.57073362691273   19.33025628646687    9.83111882976575
H         3.55490776336671   19.56599563830675   10.89408584752678
H         2.55881557331703   19.42221239273098    9.44385701762363
H         4.19902084987334   20.06075096128771    9.32598310519865
C         8.50076266936646   14.43406923291951   10.65252396389310
C         5.72070467635394   14.14637667633561    9.87935887892482
C         6.59187284726961   13.73798313491195   12.34934815420554
C         7.09920317040324   16.37782570496132    9.51653894316942

