111
CSD_code = FURJIN | q = 0 | S = 0 | Stoichiometry = C52H54P4Ru | MND = 6
Ru        6.48772592131415    5.20803521441345    1.84489079931298
P         5.19919621825285    6.77149605586618    0.76635205158255
P         8.17399485167566    3.62822566113634    1.93104186678035
P         7.27032722921611    6.67660356913206    3.41185636583705
P         4.80461406313082    4.28179244707320    3.11458070703248
C         9.19424278160825    4.66665549561679    6.36336933908346
H         8.99914476218979    3.75612296058756    6.91219871351895
C         4.02708017862755    2.68080265309906    2.63319193566589
C         8.58909556928257    2.84234473240547    0.31732291306998
C         8.17261549899093    2.10758770119445    2.95381483198375
C         3.25854320236140    5.28349414896650    3.24503557060616
H         2.50049107549863    4.76943148003396    3.83626508087007
H         2.87455107340668    5.47017873882016    2.24211475988052
H         3.50072585553740    6.24163918274238    3.70482632800817
C         4.99020961002105    3.85281988602408    4.89675571152255
C         9.75236382199165    1.14625456865762   -0.93923736821132
H        10.35036199427267    0.24591172085150   -0.95711131668000
C         6.17209525317628    7.51517273593101   -0.58924428271846
C         3.17243542298636    7.20383260590344   -1.13112741420450
H         3.59326493810900    8.19497279622503   -1.23111060323643
C         8.56814625542984    6.22175756335540    4.63209554391252
C         8.01713304161649    8.20968098407885    2.74145609140474
C         2.08150016447869    6.84570084069162   -1.89957741824319
H         1.64484903760769    7.56400077886832   -2.57892784668717
C         3.74531169686783    6.28795148721159   -0.25161991617678
C         9.66355389397633    7.01316194551616    4.95595373121682
H         9.85119405700591    7.93143705993899    4.41741139150405
C         4.50529110314657    4.61916443686405    5.95173156233516
H         3.91137025373440    5.50258305663835    5.76742422661436
C         4.36586177321196    2.04679542471367    1.44576645303568
H         5.11383965231749    2.49590957067795    0.80331468909150
C         9.89046859959498    4.23262965160710    2.23471569026171
H         9.95718573344040    4.79674213303465    3.16326746043056
H        10.14130135625988    4.89023645296345    1.40079042502735
H        10.58698931313284    3.39380005544436    2.24946075330369
C         9.37766917253558    1.75398069435187   -2.12631140703049
H         9.67762230548798    1.32663975131213   -3.07237928578577
C         5.48165373185294    3.10404428452316    7.54209146418841
H         5.67468796944515    2.82129594144748    8.56669500215085
C         6.16274429424147    7.36427792048199    4.71824374387519
H         6.70224763966118    8.08383238918108    5.33604009288954
H         5.86018094033585    6.52537528441727    5.34511416646782
H         5.27531462234308    7.82411322795075    4.28453616062765
C         5.70362594885382    2.69356039053107    5.19275535919542
H         6.05650061660891    2.07883944584855    4.37809202142538
C         8.23654019668345    3.45516478405443   -0.87729369696675
H         7.65383292727468    4.36480514511324   -0.84804779116307
C         8.62458372211328    2.91431368620453   -2.09067195587574
H         8.33808737024184    3.40299674071053   -3.01105232389894
C         4.48839876605777    8.29651440511489    1.53180891266368
H         5.25714425021759    8.77369938809199    2.13844811898917
H         3.64717085488530    8.01899150000641    2.16709360327818
H         4.14496027183514    8.99213270435411    0.76748796685698
C         7.34895366002323    1.05529729894714    2.55672639432603
H         6.77898623622429    1.15090829878701    1.64334790332001
C         7.59876589187888    9.49938358700889    3.05161554482807
H         6.79234759975690    9.66964282928405    3.75074978456243
C         9.36888925867403    1.68852489074219    0.27322333559014
H         9.67555168312341    1.20327721367566    1.18981979053499
C         8.21438071373568   10.59534615134388    2.46881139929337
H         7.87416690224356   11.59160204041929    2.71616351896770
C         8.34765029479118    5.04472345553679    5.33887547408179
H         7.50798703274179    4.41708720486087    5.06552863362459
C         2.81511992462962    0.27780005176083    1.90642498577727
H         2.34342161777404   -0.65314061554843    1.62653408689250
C         9.68599903385106    9.14087587595131    1.26530846140622
H        10.49972548006795    8.99563008248762    0.56942500164004
C         3.21920048062809    5.00614618074349   -0.18335734478002
H         3.68337711413437    4.28169255072030    0.47164171452876
C         3.76401721832552    0.85458428640887    1.08161395550938
H         4.03993926673443    0.37579275743502    0.15250679296258
C         7.76199738404302    8.43790590034138   -2.67643194263730
H         8.38140697833641    8.79730966870822   -3.48558723920576
C         7.15861119304171    7.19234198173229   -2.76278702943124
H         7.30601249926748    6.58010810807892   -3.64123142110868
C         9.06634331179420    8.04881148991203    1.83885839507684
H         9.38484519914332    7.04684417024387    1.58697893341304
C         8.82900066398495    0.82081887097898    4.87669572096944
H         9.41351594283069    0.72930153990195    5.78181977798875
C         6.37093547077947    6.73458859358659   -1.72619407454867
H         5.89767539580907    5.76208310418340   -1.78146016634635
C         8.00793177909280   -0.21923676608732    4.47573910677838
H         7.94601537069224   -1.12158233820087    5.06698918179941
C         8.91180093561787    1.97955784297900    4.12341626411942
H         9.55695024165284    2.78202600606311    4.44796720777160
C        10.28834347538642    5.45636878828120    6.67851573677508
H        10.95786660970710    5.16400030877219    7.47444302794085
C         1.55006297482942    5.56844119106369   -1.80760726880159
H         0.69626266002028    5.29338394339746   -2.40969133840926
C         2.12594133518016    4.64614993747621   -0.95210946280415
H         1.72878821692148    3.64349632170975   -0.88154593314029
C         5.94707368283674    2.31920027824736    6.49966193431838
H         6.50075780111233    1.41349762490782    6.70125259606014
C         9.25838468341095   10.42156764273313    1.57773800916941
H         9.73537987141362   11.28032964582439    1.12797699956070
C        10.52337040690432    6.62194620601443    5.96831940937864
H        11.37842060901225    7.23753369837410    6.20941374372042
C         7.26746948240857   -0.10009625530769    3.30940368959816
H         6.62478045547841   -0.90752840787213    2.98842712399289
C         4.75411212537503    4.24727914804948    7.26237973196046
H         4.37126337671137    4.85540653647683    8.07028015566582
C         6.77900052867519    8.76103424820750   -0.50871323444465
H         6.64777348496221    9.38119128579805    0.36551341781026
C         3.07478680600773    2.08865663794328    3.45956368983399
H         2.80921880750798    2.55237522486740    4.40020185072038
C         2.47463003163201    0.89810197494997    3.09807840906089
H         1.73830509646580    0.44935207557007    3.74990908378130
C         7.56969133351511    9.21732358843830   -1.55004739488085
H         8.03916435166804   10.18821304081456   -1.47576492778524
H         6.01545466123311    4.34864560269321    0.67144703739163
H         7.56603450210792    5.78177391979448    0.90892278723187

