55
CSD_code = FURJEI | q = 0 | S = 0 | Stoichiometry = C22H24MoN2O4Si2 | MND = 6
Mo       -0.32422193851896    0.83319676614802    7.30006785162153
Si        0.91762913117997   -1.86425280215485    5.46602255732990
Si        0.96987703407244    1.64907622595322   10.43804653562388
N         0.56792512818378   -1.12083101466305    7.02609743798630
N         0.59220651243548    0.43037574470596    9.22123925766946
O        -2.83158219965609   -0.66186273129379    8.36821557899557
O         2.10961237972867    2.39770179397940    6.17259762502607
O        -1.80745357685537    1.14772031682788    4.60001821926575
O        -1.79246132582986    3.48830458596281    7.92030632617898
C         0.61342114209728   -1.70370017031379    8.18472834940197
C         0.62958639109547   -0.85671512890169    9.38299184631003
C         0.75932381966389   -1.73305644920309   10.54510705506480
C         0.81302158708236   -3.05509546536074   10.03541696527598
C         0.72820517641277   -3.09351066574019    8.62060482772554
C         0.66986702468335   -4.32466890488119    8.00989527575141
H         0.55139664196153   -4.42430520538078    6.94398251334471
C         0.75530160143121   -5.48287193378616    8.80286137803856
H         0.72277404276525   -6.44227729709623    8.30687437537521
C         0.86459211272999   -5.43975735748058   10.17075815746463
H         0.92084809574309   -6.35310488947836   10.74459785252567
C         0.87496478515278   -4.19587764921902   10.84060905389425
C         0.90237286989929   -3.97952045285434   12.23644640384909
H         0.96174029599213   -4.82600172808505   12.90473115883469
C         0.82632597647658   -2.70280935016000   12.73561074107143
H         0.82343568678904   -2.55486630959821   13.80594095919764
C         0.73755723214121   -1.56757644531807   11.91047957044604
H         0.64561947957702   -0.59454319890451   12.36297330598927
C        -0.69484093408469   -2.69273748992283    4.86263157860759
H        -1.12401062422520   -3.36196891332838    5.60282795254226
H        -0.52608084673515   -3.26086510575043    3.95359645701876
H        -1.44014346321663   -1.93303569665297    4.64231320945572
C         1.45013172544971   -0.48583181409509    4.26825241892551
H         0.66486362368172    0.24211445293674    4.09531516824574
H         1.71062141654038   -0.91795052839668    3.30683166908591
H         2.32436816108530    0.04649530588537    4.63158792744294
C         2.41501143134923   -3.05905196667766    5.59193609010782
H         2.18428074863923   -4.04403438592755    5.19907399566388
H         2.76078077850779   -3.18361217444684    6.61373242373669
H         3.24685386843728   -2.67116083280328    5.01210787202643
C        -0.61889828173895    1.93772875650945   11.45952349748213
H        -1.03504490108461    1.01646565516583   11.85683580430831
H        -1.38168404280533    2.39444342052905   10.83445734810905
H        -0.43134805491690    2.60818773388785   12.29192588558619
C         1.47902824899885    3.24375545988029    9.53497549196407
H         0.67850539677281    3.65288742376577    8.92825090393999
H         2.33810833393036    3.08389271277729    8.88999026462517
H         1.75630805333950    4.00153912376901   10.26148347388329
C         2.49284891509076    1.12745355167882   11.48406946360287
H         2.82570045479555    0.11899388140822   11.25807486259423
H         2.29098788897652    1.17799151258937   12.54928504624298
H         3.32427790543359    1.79677032976957   11.28512250817890
C        -1.90728739747954   -0.10979392869171    7.97605422407867
C         1.25228226505060    1.78202865412039    6.61608715628351
C        -1.22653938603281    1.02189724952963    5.58578018157625
C        -1.21456639019003    2.51622732877980    7.70555594542907

