73
CSD_code = FURLOU | q = 0 | S = 0 | Stoichiometry = C27H42ClIrN2 | MND = 6
C         4.03876477137816    1.61712391690193    4.07790408553958
C         3.52937137744741    2.80189631841290    3.50066864152355
C         4.73689921010838    3.46212200374083    3.80659343113828
C         5.34467767301725    2.27150106857341    4.55549113155962
C         0.45483782767192    3.24741179375223    3.71784476868722
H         0.71926319176759    2.69408536751802    4.61794728368401
C         1.03380225273235    4.53166595154237    3.58654593945900
H         1.66952971131300    4.86291389725357    4.40873155269323
C         0.65646002509924    4.20235625217356    0.83802862068242
H         1.27171901916093    4.48823706070584   -0.01124953347431
C         0.29657135728437    2.87397634637951    0.94942127460517
H         0.62081485570384    2.19195352677917    0.16647124812179
C         2.39373640228115    0.02493358824761    3.32525269582070
H         1.91605414096071    0.94629475813341    2.96970100420707
H         1.70023705564984   -0.52595557154299    3.96957470551003
C         2.81486786512222   -0.82932494355801    2.13099446442918
H         3.43937549958494   -0.21785754611077    1.47713235816161
H         1.92784614296457   -1.12290848770369    1.56923576675684
C         3.58111170476034   -2.06306143692210    2.59892298823447
H         3.93894797829052   -2.63151909050749    1.73923939022820
H         2.91587631643239   -2.71118274911120    3.17644572981906
C         4.75915256397995   -1.64017376705423    3.47205116247219
H         5.27651755824235   -2.51440455836423    3.87205097603476
H         5.46674663466802   -1.06659184553284    2.87060618097136
C         4.25654482967381   -0.76666941750886    4.62490983702725
H         3.55334526920082   -1.34550096454862    5.23698669712948
H         5.07747557125818   -0.44042279429397    5.25805037438399
C         4.48079569540915    5.52518408026520    2.58720074735840
H         4.35462382565416    6.50846451551920    3.05374353121623
H         3.49830672252565    5.07743386890222    2.39522252784437
C         5.25541187217810    5.64706564356831    1.27717516208976
H         5.29218257608144    4.66181018716251    0.80926661719594
H         4.72082216404918    6.31901809799699    0.60564655867760
C         6.66587907179791    6.16524345497715    1.54008586280881
H         6.61591872986822    7.18410174734138    1.93426189634462
H         7.23653512418953    6.19289386391682    0.61075056036207
C         7.36385082952299    5.26201095422861    2.55262494291856
H         8.35302348259381    5.65104187002950    2.80155609833972
H         7.48295944333642    4.26737322140621    2.11859696872859
C         6.51760871474885    5.16164923153286    3.82590663092778
H         6.99654653472497    4.51964150366252    4.56414880381319
H         6.40794650007870    6.16261472014289    4.26279158402982
C         6.64745040696686    1.75296114715953    3.92169189902152
H         6.39965127339163    1.28755389342314    2.96488277902525
H         7.28115586146523    2.61179689237782    3.69871338379722
C         7.47464248160394    0.79277928144748    4.77668931669196
H         7.01654996331436   -0.19573014001927    4.81416628066972
H         8.45434795819861    0.67050198637853    4.30845743040197
C         7.64349878580103    1.32478790567924    6.19527744580654
H         8.24058613330782    0.62609008660647    6.78479046960862
H         8.17594497008394    2.27891265257705    6.16913233421230
C         6.27961538774445    1.52379938817526    6.84626892746147
H         6.40394317726160    1.88296021283822    7.87047227279906
H         5.75597533987299    0.56766289182386    6.90237352606275
C         5.45344052749128    2.54274695551794    6.06554226648002
H         5.91413714462180    3.52475001815768    6.20267679079351
H         4.44421612850077    2.60285547413268    6.48014309437390
C        -0.92729067960035    2.91910455056170    3.18438984837240
H        -1.39356020288266    2.17141705251848    3.83012015782633
H        -1.55069449184473    3.81385769415074    3.23154029424761
C         0.36182420641868    5.68834335619248    2.87672872148326
H         1.08779340799794    6.50196171109877    2.80247833190525
H        -0.47266580600025    6.05869408073748    3.48374616470570
C        -0.13489645390880    5.32942376482931    1.46233900504583
H        -1.18890520846875    5.04706733751976    1.49483834815505
H        -0.05986057203823    6.21435219893600    0.82624626238565
C        -0.88751084396567    2.37290467067407    1.74347309058341
H        -1.81500264023708    2.63100019893770    1.21926937663487
H        -0.83306797950748    1.28201526497089    1.77912733914344
N         3.55943004154485    0.38438637569594    4.10894851444185
N         5.19748122600664    4.66736359792328    3.51062105644827
Cl        3.48756989717156    2.46082871481066    0.57609801765026
Ir        1.97194246717813    3.21250514615867    2.24812598569454

