30
CSD_code = FURPUD | q = 0 | S = 0 | Stoichiometry = C12H13O3SV | MND = 9
V         0.21221154549189    3.22774062751293    1.31392305343974
S         1.17510689084675    1.03029325717997    0.86068682359966
C        -0.91993973505748    2.64171160974973    0.03450293715016
O        -1.59851179321021    2.31110154588544   -0.85456137875956
C        -1.55382933346136    3.01205601422610    1.58374929604745
O        -2.71749186160882    2.99771966855317    1.77881456121934
C        -0.46666095333839    2.31155422318658    2.71530413325019
O        -0.83651297470281    1.75912610888820    3.67270994248621
C         0.28349353467511    5.36558120867166    0.84245622145870
C         1.32682397049130    4.72288030539124    0.15282853447278
C         2.19244267120414    4.16770301775603    1.11167547658684
C         1.68488232996703    4.45143327639102    2.39112658658572
C         0.50426672180287    5.19746088228143    2.22526181152281
C         2.08726378761402    1.09570540879396   -0.72799491030005
C         3.36161372540590    0.31040047322870   -0.47454933432673
C         3.88803365815600    0.79425901585110    0.87400771159112
C         2.71296548241051    0.77122978895370    1.84400014403203
H        -0.50227474802531    5.96124594299396    0.39570563025711
H         1.50603819337116    4.77567185638107   -0.91404500003352
H         3.15867598858551    3.72495255962328    0.90443991611035
H         2.18499949680225    4.25825070937132    3.33206760541872
H        -0.08387923012243    5.64236721777513    3.01767412736855
H         2.28695132175838    2.13777576244251   -0.97730485913598
H         1.44521332329588    0.65108751484907   -1.48545478986610
H         4.08867107646871    0.46998704929035   -1.27064601737983
H         3.13098421436086   -0.75443255003788   -0.41914836652921
H         4.69738477192463    0.16071569549784    1.23608370940862
H         4.27579250337808    1.80877720923172    0.76988984288909
H         2.59969297059864   -0.20488376298001    2.31501596050758
H         2.76709245091717    1.53882836306081    2.61388063092785

