61
CSD_code = FURREP | q = 0 | S = 0 | Stoichiometry = C28H27Br2N2PPt | MND = 4
Pt        5.79877547180635    2.55065560807656    0.02440259827908
Br        7.43361316698898    3.67303659946275   -1.40798051796831
Br        7.46164243067921    1.12622620371436    1.13597894711563
P         4.28863086160783    3.67238306506775   -1.28395537607078
N         3.72147149494629    2.34498905061928    2.13611424478591
N         4.16853146933146    0.41293700805952    1.25661124344048
C         4.46610376732980    1.70998412449209    1.22800031772021
C         2.79034581041835    1.44383805138105    2.80951337890536
C         3.26348540890662    0.06263500517040    2.33849802893381
C         3.78903466358153    3.71503427967905    2.42030483336224
C         5.01405361880551    4.37841580956536    2.36872914723928
C         5.07952649282284    5.73531962055361    2.62650462356044
C         3.93871047038639    6.46031996080086    2.95023580481145
C         2.72861681830050    5.78123011634439    3.03262689532719
C         2.64791999490074    4.42580760740683    2.77825478932915
C         4.00381195348862    7.93649421235656    3.19125925242973
C         2.55938629545795    3.75412263062800   -0.69768135258231
C         1.91946931560584    2.53255510043647   -0.49720009570518
C         0.62747529341518    2.48828266100639   -0.01262178124637
C        -0.04077173460374    3.66750028280895    0.28226594470256
C         0.58778803663438    4.88393354295864    0.08102836329599
C         1.88323778700982    4.93095917073900   -0.40554925450118
C         4.65310715855529    5.36508710434161   -1.82906208176034
C         4.79945619260793    6.33811339714169   -0.84253110485760
C         5.13061472969498    7.63358460395633   -1.18955645616080
C         5.32956557704282    7.96435500916684   -2.52041010520619
C         5.20702233141168    6.99380133104490   -3.50016255683155
C         4.87434863777564    5.69444845184103   -3.16074249615019
C         4.04663019054232    2.70991971486321   -2.80472493308675
C         3.03616943749402    3.04570604103370   -3.70297540688595
C         2.85687156417061    2.29269683800128   -4.84740994580490
C         3.67614523957092    1.20195944734484   -5.09891014460299
C         4.67230522943406    0.85740724201131   -4.20105212301709
C         4.85594441356081    1.60837350569449   -3.05359406952725
H         4.76005174011821   -0.27652218703383    0.81865354247194
H         2.85255521896970    1.57527367945240    3.89154198693368
H         1.76552133654680    1.64946843175349    2.48206376940589
H         2.44447377749213   -0.55936603114751    1.97076923625244
H         3.79685001633644   -0.48387461957796    3.12373203150970
H         5.93056854117725    3.82874727124263    2.16988747950163
H         6.03656329548862    6.23379287438005    2.57952384359441
H         1.83209842049635    6.32221504430480    3.29824397500803
H         1.69314798796001    3.92727944604282    2.84061472400617
H         3.36776440974077    8.22056856601307    4.02705483228470
H         3.65376776711398    8.47329330782351    2.30852541184717
H         5.02304147136181    8.25175071848084    3.39920869764523
H         2.44604050247761    1.61673916336821   -0.73785309430586
H         0.13511722483707    1.53652679712670    0.13036044888725
H        -1.05083794824515    3.63543386312457    0.66351918183711
H         0.06724996365854    5.80388943197890    0.30279243266326
H         2.36276742637618    5.88552864396908   -0.56560032085269
H         4.67240810280505    6.06533610762788    0.19688990743235
H         5.24756981120760    8.38295445960292   -0.42023559357117
H         5.59704013002673    8.97482358850422   -2.79139976287038
H         5.38409922477157    7.24486007767061   -4.53544190735674
H         4.80863501189700    4.93651938065896   -3.92771873995724
H         2.39712081405064    3.89485367365484   -3.49759803999407
H         2.07714846226750    2.55611990813419   -5.54718330381935
H         3.53404349888200    0.61965739228384   -5.99722592686107
H         5.30794965468994    0.00658378215541   -4.39500710199173
H         5.63890454775898    1.34533483071256   -2.34622632106433

