93
CSD_code = FURRIT | q = 1 | S = 0 | Stoichiometry = C46H41BrNOP2Pt(1+) | MND = 4
Pt        7.70361766348528    2.26314136983490    2.52963419943361
Br        7.70382899279911    0.70643190489055    0.66373353617746
P         6.91380778540947    3.91044478078937    1.09592634365243
P         8.91572341490523    0.66011304343800    3.66875810291488
C         7.74931685099780    3.51577202529621    4.06547381124770
O         8.91477964944927    3.94362135026746    4.48886321534449
C         8.76083470869433    4.80537175374362    5.62676321051005
C         7.24772476894343    4.96744972339112    5.77528548326803
N         6.75438674726939    4.02377180013107    4.77200485327564
C         5.38167856249059    3.79907890234593    4.55455970054591
C         4.94345402939857    2.66571404447709    3.87390160633672
C         3.59997523712070    2.49126528130963    3.60041690360134
C         2.65536764553568    3.42339127081480    4.01012379938354
C         3.09764720269052    4.52501107193364    4.73631322713785
C         4.43730433257113    4.71527434598433    5.01142132430687
C         1.20395889336088    3.24683445298625    3.70611469915690
C         8.19585827939511    4.04954007932215   -0.18151575762456
C         9.49268151886212    3.71433673036075    0.20584089944560
C        10.52788256362322    3.77275951499441   -0.70551946017113
C        10.27245586342058    4.16186598117528   -2.01135575687892
C         8.98327179845369    4.48390842809788   -2.40178430223872
C         7.94026808659476    4.42711726973953   -1.49317577273876
C         6.87822953041789    5.55654524162940    1.87598131701827
C         8.07159146300270    6.23946611674307    2.09725562023565
C         8.07004823277748    7.43309075117001    2.79575091428924
C         6.88058520462375    7.95219917149336    3.28371139185827
C         5.69115284944736    7.27405727477043    3.06910213298120
C         5.68752538530708    6.07716031744606    2.37507625281691
C         5.31385262231179    3.78645711935806    0.25973972706144
C         4.79034506801362    4.89084792250953   -0.41185378916560
C         3.57264302379118    4.78668981626665   -1.05673136433315
C         2.87054792482452    3.59097038647886   -1.03185418545834
C         3.38741019319751    2.49533271133792   -0.36140553297849
C         4.60711579096043    2.58989710896529    0.28447694143294
C         9.27479809285717    1.03668867314664    5.41409465063555
C        10.55231764774926    1.08297380550718    5.95528445563752
C        10.71953168591911    1.37445969010365    7.29904916008537
C         9.61947673512064    1.61507088492991    8.10515182995594
C         8.34048363088535    1.55481665289230    7.57105127568489
C         8.16963780810995    1.26586045877807    6.23110358299775
C        10.50902560626774    0.62275416135909    2.81679647816581
C        10.90503205663883   -0.44851627942550    2.02437420040688
C        12.08023155839366   -0.36215182798619    1.29861128703019
C        12.85128741045652    0.78747429235196    1.35049727674237
C        12.44714288870127    1.86461815042793    2.12502039373521
C        11.27433073195811    1.78924189706027    2.85187841978556
C         8.32033220333080   -1.04346810737661    3.80903777485170
C         7.02938066389103   -1.38815421247395    3.43123066467761
C         6.59218267173935   -2.69091887446217    3.59241823355736
C         7.43811547377312   -3.64323740382511    4.13536875694443
C         8.72296740602239   -3.29598065206364    4.52648248508931
C         9.16625941106056   -1.99706729234194    4.37124460359209
H         9.22876884870845    4.31215378218054    6.48320064744004
H         9.27948296555730    5.74140931029956    5.41434309354809
H         6.92210778942134    5.98244252909311    5.53115022284180
H         6.88240613039046    4.69214808474600    6.76637082346624
H         5.64891401236870    1.88705573035932    3.58334999499573
H         3.28141985014234    1.60986708408171    3.06551117327846
H         2.37980885606826    5.25022172938467    5.08867637020741
H         4.73960985221399    5.58754117186847    5.56760018995171
H         1.04127523760106    2.39170854641187    3.05648790578303
H         0.80593752946661    4.13682140168778    3.22193348466357
H         0.64240031267457    3.09509518324488    4.62706082002098
H         9.68277926584799    3.38467274349774    1.22711908342368
H        11.52767638002123    3.50016750011980   -0.40218540735528
H        11.07765958054557    4.19991447098201   -2.72873733791813
H         8.78460066194123    4.77122623767722   -3.42296419255226
H         6.93321133811940    4.65500456941605   -1.80987024194589
H         8.99894584730590    5.83916517816122    1.71050228994523
H         8.99700812562215    7.96389882246272    2.95441432433337
H         6.88068829735956    8.88678818276921    3.82398497603013
H         4.76163550634992    7.67848357051557    3.44097196974215
H         4.75862230988896    5.54891675093536    2.21081093550714
H         5.33153805632352    5.82778718357701   -0.41929746753029
H         3.16989696847349    5.64025420935166   -1.58096339154456
H         1.92042434529499    3.51619880877653   -1.53818666181835
H         2.84351086243030    1.56329269149652   -0.34708454914102
H         5.02024883663910    1.73135288782494    0.79436026428426
H        11.41396613164580    0.89216905064892    5.33177923292302
H        11.71365340078288    1.41033268409328    7.71812887708333
H         9.75618433011787    1.84256063458215    9.15128409283231
H         7.48064474167732    1.72682032399576    8.20181394598168
H         7.17370921639314    1.20452054505736    5.80554604829487
H        10.28934811785909   -1.33439826938878    1.96401240853020
H        12.38857047097880   -1.19282045569249    0.68280757895387
H        13.76508787712550    0.84904502462796    0.77931857348139
H        13.04397146056387    2.76447395274998    2.15741979031668
H        10.94272722268639    2.62791821465578    3.45364157055913
H         6.37690329269512   -0.64372044525481    2.99354141806098
H         5.59263418560807   -2.96320839570577    3.29025718866276
H         7.09762869071433   -4.66015395492082    4.25581371052332
H         9.37884726658384   -4.03982896304735    4.95271534403412
H        10.16514026109343   -1.71619138692404    4.67833207886811

