40
CSD_code = FUSKOT | q = 0 | S = 0 | Stoichiometry = C17H16MoO4S2 | MND = 12
Mo       -1.99722929891341    3.74620312372565   -4.95628700163023
S        -5.20368752981953    7.44712956481853   -5.30105069492962
S        -3.67718401017475    5.09474300699562   -6.19542281670849
O        -1.66840664862445    3.78634217298811   -1.75257685908918
O        -3.71215739138955    4.51562029044753   -1.15959281693249
O        -3.61674157465061    7.35679176999805   -1.82941499290676
O        -5.65758622893083    6.55750505080057   -2.32871462980569
C         0.18998885095265    4.14019688662754   -4.17533383430570
C        -0.46389652280604    5.37143893205017   -4.08277176438588
C        -0.90730458156254    5.73772117715726   -5.37733365256220
C        -0.47235311461011    4.73613987363709   -6.29889699270747
C         0.20289438262328    3.74892841279148   -5.54509269757156
C        -2.14730065697048    1.70742314394676   -3.86704798016692
C        -3.48024774381640    2.12895647663309   -3.99291937424068
C        -3.77946948375933    2.25871425951017   -5.37123914989730
C        -2.63070123939765    1.90338842654031   -6.11686653146034
C        -1.61285238543558    1.55859909927962   -5.18090742201032
C        -4.25250631567232    6.15039649549575   -4.95386842044257
C        -3.85675491676114    5.79244663870425   -3.61392139680003
C        -3.05366358412093    4.73010672897562   -3.40248981939844
C        -2.72176163293038    4.31644791439457   -2.03976748746428
C        -3.44919148379880    4.19068471847237    0.19733996781477
C        -4.34576048251418    6.66099196975783   -2.48798536110210
C        -6.24091034900679    7.38497468745860   -1.33203600922880
H         0.69145136251327    3.63501178711960   -3.36474321421865
H        -0.55388434993315    5.97753712036862   -3.19243939154665
H        -1.28249291882951    6.71856011125322   -5.65234922695524
H        -0.47496266789919    4.83482085760770   -7.37351310309045
H         0.80593913595925    2.95078339690437   -5.95849151046201
H        -1.66197265762204    1.41247562412002   -2.95023131902031
H        -4.20327146759772    2.21692570743898   -3.19227149671371
H        -4.76610048800736    2.44137662106357   -5.78085086199998
H        -2.60654862472027    1.73076443247168   -7.18156702333712
H        -0.70228886931163    1.02211286252380   -5.41661416802930
H        -4.40258881567847    3.92277079771046    0.64830629132635
H        -2.74326066463034    3.35917299175309    0.25328550383574
H        -3.02338933381446    5.06024165605130    0.70247018758259
H        -5.63164281624399    7.37085638858786   -0.42579809939491
H        -6.31259276839978    8.41066543369081   -1.70000563917070
H        -7.23251011409800    6.98203338444896   -1.14058919849692

