100
CSD_code = FUSNAK | q = 0 | S = 0 | Stoichiometry = C41H55IrOP2 | MND = 6
Ir        3.55877059089966   10.81605175866400    7.67993267032230
H         4.44449650990134   10.91762775797933    8.94489670117643
P         2.95555575567330    8.85437722875455    8.92982057698350
P         3.90316718051082   13.20807634213082    7.74517623380110
O         5.58578175156415    9.98330133336499    5.59620429536310
C         1.88478240232032   11.45108896114097    8.78124684515937
C         2.40661758233766   11.72763840014201   10.10718966433889
C         2.54412687859621   10.67510799817141   11.01878761272962
C         3.11712509703265   10.93144773656398   12.25302311097789
H         3.20280134300965   10.14207453246484   12.98721202383846
C         3.59321182537849   12.19947994430980   12.55207390246461
H         4.02660841868871   12.39303358756264   13.52204168457538
C         3.56740903228841   13.20574015529261   11.59718687916980
H         4.00542932496551   14.16949658704109   11.82000651034136
C         2.98690507306543   12.97568405488015   10.36162613383214
C         2.11356547929471    9.32576619348287   10.54051762152955
H         1.04390194920988    9.35204597986759   10.31086265330263
H         2.30023180453519    8.55362841956867   11.29009343461395
C         2.99906764310526   13.94016761394806    9.22016227558140
H         3.44092934458298   14.89595606283657    9.49936710837334
H         1.97152890044698   14.10411943756379    8.88844845879363
C         0.61769133173130   11.64538359045470    8.39603081531298
H         0.34709170462774   11.41385862036883    7.37252844431188
C        -0.50821484152695   12.16504640932579    9.16547097818692
C        -0.48012519208326   12.43507732288809   10.53496423607663
H         0.41763691210125   12.25227214054313   11.10407739336519
C        -1.59470941049167   12.93529310693880   11.18138968845857
H        -1.54769620647049   13.13523584185900   12.24285057937822
C        -2.76522154940002   13.18027689160437   10.48310417601622
H        -3.63298712759445   13.57260866982871   10.99301312632355
C        -2.81217168507339   12.91470739887122    9.12402221442406
H        -3.72043158307483   13.09977449358701    8.56780499160020
C        -1.70124530552463   12.41245970524606    8.47728243612336
H        -1.74686182670772   12.20718155775140    7.41635602920062
C         4.47799187939917    7.88644924496361    9.56912383913371
C         5.48995893372847    7.75884387175206    8.42976927294103
H         5.89343334410609    8.73574305874084    8.17526065054080
H         5.04388651474092    7.32984739456875    7.53625326841105
H         6.31731382979369    7.12085120750907    8.73914575761247
C         4.16579999732080    6.49421807934852   10.11584233256252
H         5.05526865530922    6.10995303816374   10.61577769981079
H         3.91359180885893    5.79741078811626    9.32184210113632
H         3.36192200902762    6.51698976833947   10.84747073688274
C         5.12601618905413    8.69190807365249   10.69824179351177
H         6.13748852162079    8.32582227850220   10.86906015991526
H         4.57441563827000    8.59432166683735   11.62883530557378
H         5.18981718438152    9.74690596577316   10.44401518520799
C         1.69663224602256    7.62457510405323    8.19279541822115
C         2.35235011349133    6.94383624746417    6.99210660255931
H         1.60180150309212    6.39746422659985    6.42206068767396
H         3.11984859884104    6.23499089479664    7.29359081415374
H         2.79686232381886    7.69391716570929    6.33729398412377
C         1.12015830535767    6.58493833410046    9.15683784368063
H         0.23540157268618    6.14562054538345    8.69629521551150
H         0.80849696080490    7.03221348076515   10.09717715754219
H         1.80922821202573    5.77448455874495    9.36297983331312
C         0.53017116203892    8.46591074553508    7.66958110764981
H         0.88497222577816    9.20418277512127    6.95531151716870
H         0.00143409138336    8.97643628226842    8.47177123316557
H        -0.18400332482792    7.82036222924815    7.15933094512918
C         5.70176995884354   13.77139951528816    8.10452986392044
C         6.53353031962805   13.67429314572433    6.82533255793552
H         6.35148453646902   14.51771344181411    6.16425828083803
H         6.31457809361295   12.74795031513327    6.29600477988737
H         7.59386764744687   13.67546500308703    7.07702314009892
C         5.82535752052051   15.17967419616664    8.69760160327630
H         6.87095706128261   15.48288288289952    8.64412023115039
H         5.54144688257688   15.18556298203888    9.74727421975837
H         5.23991787211803   15.92367695314277    8.17058439081486
C         6.31059570391462   12.81383770255648    9.13252808338359
H         6.48115805022828   11.83285492795997    8.69875414867198
H         5.66497650718398   12.70404606176273   10.00187561898849
H         7.26982091754686   13.20770006428117    9.46763657640480
C         3.21393719815191   14.22419804579935    6.28113437786999
C         3.78749123632209   13.66623816208528    4.97646201748068
H         3.24414406012623   14.08954336391551    4.13240361869598
H         3.66586925736764   12.58441849336629    4.94357642999389
H         4.83640129961160   13.90700937395428    4.84378164273324
C         3.46544685753513   15.72820056694445    6.36181961086801
H         4.51406726161036   15.97211749448206    6.21381034422480
H         3.12302965317461   16.14044838722245    7.30899354514390
H         2.90358178366815   16.21946830614980    5.56722791148095
C         1.70244476120008   13.98421198150820    6.23602522059377
H         1.29435127885412   14.44210389733096    5.33549585525326
H         1.18010611392407   14.42035912816372    7.08431620695909
H         1.49448454473221   12.91867179979492    6.19558326914312
C         2.43275803299181   10.63224618543601    5.99250005591317
C         1.78626452041108   10.49875676656498    4.97496345934686
C         0.98877177286689   10.34329505224786    3.81459657344970
C         0.55724085020610    9.07450430384444    3.42269048541188
H         0.84091591052821    8.21453544531910    4.01378298786778
C        -0.21992759061364    8.92256799185985    2.29170697541560
H        -0.54871093659129    7.93630197317024    1.99385535922033
C        -0.57949794793639   10.02783200424457    1.53667090186195
H        -1.18748221387824    9.90534728657574    0.65179048030267
C        -0.15591903232765   11.29053398118097    1.92000354961568
H        -0.43517006223688   12.15410824819240    1.33187555997521
C         0.62207844068020   11.45166864210768    3.04932156411041
H         0.95495553011337   12.43519749762625    3.35065965069139
C         4.90137874409277   10.27767556800429    6.47628688206337

