55
CSD_code = FUSTEU | q = 0 | S = 0 | Stoichiometry = C28H18ClN7Pt | MND = 4
Pt        8.57744667894147    5.02495386382104   -2.30205607476936
Cl        8.62132380549328    5.02662214067919   -4.59213172563729
N         8.17040909505021    7.01331252603396   -2.28350566353394
N         7.05327173795396    7.06807018706462   -0.15111370776564
N         8.06357747721660    4.91299060467458   -0.37920320511449
N         8.53568539918705    2.60315905657362    0.00561117696066
N         9.30499195951858    3.12500330706883   -2.21897715223555
N         6.09988489415329    5.84101408229686    2.46021746360528
N         6.85189488411922    3.13304712924342    2.47802245567571
C         8.65485561524406    7.76889337234752   -3.28277764108847
H         9.17846690100299    7.24965045584403   -4.07327293034721
C         8.50409058649886    9.13540802089322   -3.35722963532438
H         8.92052349005766    9.66902444871180   -4.19568546353581
C         7.80953933184643    9.79757466955406   -2.34837976055167
H         7.65835214233555   10.86553487112202   -2.38450168638429
C         7.33285648149326    9.04918993404880   -1.30379809962033
H         6.80481040894380    9.48213782745607   -0.47054352537108
C         7.53836951251807    7.65537875746758   -1.26517931213306
C         7.29527756982001    5.86074776931136    0.22819445488537
C         6.77563212975417    5.29144053769807    1.47278808571013
C         7.22173453398656    3.96027300370743    1.52266440202397
C         8.01821708342156    3.74182766027173    0.31433078792737
C         9.21566175140753    2.32085828880938   -1.12490542209239
C         9.84344770965903    1.05862915444020   -1.09878944708015
H         9.71354117664266    0.47529538544344   -0.20248374955019
C        10.58440574752476    0.62174253894314   -2.16522401820029
H        11.06848495325672   -0.34270079719192   -2.15167244332540
C        10.69253226290318    1.46593232786566   -3.26723127415878
H        11.26623831710902    1.18563761174420   -4.13527675686951
C        10.04826230039451    2.68217084457907   -3.24716787027576
H        10.11833282434974    3.33214363178213   -4.10811081251979
C         5.79802261961240    5.04057279424006    3.48250999385373
C         6.08513531540403    3.64967354866415    3.43849959439865
C         5.19106273976628    5.69908193752120    4.64344742192147
C         4.27838892057572    6.73192244391466    4.44014938903639
H         4.02767287069645    7.01186044035102    3.42864253706192
C         3.70354617675067    7.37540744669088    5.51952716957659
H         2.98841746633971    8.16779489537486    5.35449435854413
C         4.04590660503189    7.00838511602741    6.81067186314703
H         3.59645563270350    7.51125242762477    7.65414810825241
C         4.97529100611367    6.00163550555835    7.01881786341499
H         5.25813324228129    5.72650781014841    8.02414017106017
C         5.54691090715176    5.34771538214061    5.94439700594916
H         6.28310170585908    4.57526163302080    6.11109802314862
C         5.55132659298876    2.68803220714532    4.40776676910165
C         4.24898157426269    2.79236753287615    4.89333245918235
H         3.61002912411063    3.59401692310607    4.55363731281026
C         3.76809014553211    1.85856267932295    5.79087432924746
H         2.75708793663813    1.94410137724478    6.16097461611919
C         4.57518528374975    0.81416196339677    6.21327403674886
H         4.19680171300810    0.09117224587571    6.92070113039272
C         5.86312097350555    0.69327942679983    5.71753289784627
H         6.48979553218143   -0.12705328503888    6.03515207326565
C         6.34763391345124    1.61890448727954    4.81323584027777
H         7.34578324048643    1.53391984839000    4.41216358635932

