49
CSD_code = FUSTIY | q = 0 | S = 0 | Stoichiometry = C26H17N5Pt | MND = 4
Pt        3.73937913400731   10.07853556145725    3.44858087296680
N         3.93908166987437   10.76400768561910    1.53357387943154
N         5.08500853909238   12.82697270761550    2.05684614313046
N         4.87925121951252   11.60426924420093    4.09004034181003
N         4.92789131445106   11.11304201728372    6.41912789884571
N         3.77479316070626    9.28719085045710    5.33357082518972
C         3.50490467628920    9.99679516099970    0.51460924890131
H         2.96720200623717    9.10091580540054    0.79100718521538
C         3.69408003185052   10.28576838224561   -0.81554399961538
H         3.31095406048691    9.61146222680220   -1.56364718566984
C         4.37771153219125   11.44820412982786   -1.16794130914748
H         4.54545127323241   11.70708348506576   -2.20214532597568
C         4.82149220992268   12.25093017444066   -0.15352846656300
H         5.35503488977007   13.16953644008060   -0.33444740441270
C         4.60388986713332   11.90651275314855    1.19931477492183
C         5.18045191703912   12.69010124061912    3.33899226122168
C         5.68785377142959   13.75374163147499    4.21050488488767
C         5.64173038110439   13.24203949435238    5.51321458570158
C         5.10674692936194   11.88246314918967    5.39561716937938
C         4.40528877208490    9.87208813923980    6.39173550418555
C         4.52929083362603    9.19728746251581    7.62690360457869
H         5.04465195608503    9.72551956388335    8.41216389774659
C         4.02018622960339    7.93991412235408    7.80020664608668
H         4.11671965731244    7.42060978577390    8.74135013204985
C         3.36335245781333    7.35760237809892    6.71742881650187
H         2.92856879453849    6.37415468521027    6.78764957700659
C         3.26956140647966    8.05470776184114    5.53688397231538
H         2.75428808013782    7.60918977873719    4.69776165200576
C         6.14863110156855   15.02950666891988    3.95800910530280
H         6.17986749952251   15.41549742515595    2.95156969244999
C         6.56571241452723   15.78620175829658    5.04571891719195
H         6.93264306244158   16.78942232302335    4.88520402547258
C         6.52007642205358   15.27877272131954    6.33769169663105
H         6.85239384335887   15.89626838867383    7.15935092031303
C         6.05548889701181   13.99474782370191    6.59299952009522
H         6.01604426180670   13.59323335357213    7.59306720686489
C         2.42982343593995    8.71850582547437    2.86206535800132
C         1.58392899249112    7.91988417221035    2.51207657968404
C         0.63188510397306    6.95661300431958    2.09690378043329
C         1.05298065707038    5.70655248582508    1.63818135742780
H         2.11077674673990    5.48525463161536    1.60348770389693
C         0.12570125837126    4.76627785563890    1.23440668315638
H         0.45936601684010    3.80077019574599    0.88049970917420
C        -1.22886108577286    5.05560444057028    1.28117758341683
H        -1.95154279200398    4.31744170334586    0.96475534540932
C        -1.65351377392046    6.29444520003680    1.73501488960426
H        -2.70976658658886    6.52159161307332    1.77201004455812
C        -0.73387217197299    7.24141731124494    2.14096719227973
H        -1.05968007483675    8.20884528029947    2.49581250593729

