61
CSD_code = FUSTOE | q = 0 | S = 0 | Stoichiometry = C30H25N5Pt | MND = 4
Pt        9.34731990559928    3.90169395571737   -0.09119747002363
N         7.97427911603889    5.40504174724475    0.06256619871727
C         6.98636983823818    5.29923485778699    0.97287764969652
H         6.88774907127855    4.33653719981462    1.45499846458631
N         8.94081458224320    6.87982949813693   -1.58727475504780
C         6.12221965217862    6.31427634246023    1.30629704241319
H         5.36130598727255    6.14009710031124    2.04912118786403
N        10.42699824781097    5.03737281276421   -1.35125369386406
C         6.25111606455220    7.55105979498777    0.67584445687429
H         5.59679277070098    8.37399146594495    0.91980294657975
N        12.20664811907815    3.52360928067593   -1.80949720219959
C         7.22815020087625    7.67802016690146   -0.27251197841395
H         7.38774922957688    8.59305772749330   -0.81894515193574
N        10.87250305984106    2.54502237266385   -0.04902848546556
C         8.08688480498675    6.60017299453541   -0.58450366718924
C         9.95173646217031    6.15727322755710   -1.94495776920166
C        10.79580724882016    6.48811406859913   -3.09678611422854
C        11.76872902207278    5.48292285286076   -3.16465658903925
C        11.49033369223195    4.57310440637600   -2.04965204281728
C        11.99526936406164    2.63841767734779   -0.81629185872083
C        13.07115267328476    1.73993829302262   -0.64051478480339
H        13.92184046355270    1.87710600507409   -1.28759618842325
C        13.02432983680898    0.75901263038280    0.31154545225585
H        13.84662692392875    0.07411840391234    0.45130334530230
C        11.87228221943109    0.67328750696651    1.09132817059071
H        11.76704404745480   -0.07857700899312    1.85602809265558
C        10.84973553673922    1.56602389285273    0.87603406219939
H         9.94916166860316    1.49502329423818    1.46934174743960
C        10.76899292220902    7.52116268621289   -4.01093399457372
H        10.01591361468678    8.29078749156194   -3.95181539116769
C        11.74426516102200    7.52601148105575   -5.00017844479186
H        11.75363548097186    8.31995255651826   -5.73259604111257
C        12.70864476462312    6.52898497538828   -5.06773913903596
H        13.45100599142824    6.56475842181093   -5.85164108825568
C        12.73621089376880    5.48807649098570   -4.14827812815771
H        13.48065675049387    4.70919895731091   -4.19376210106976
C         8.18560084038015    2.67081041277192    0.92918350455491
C         7.47229842369869    1.87185574039644    1.50187984696169
C         6.67429892804759    0.93990686624143    2.20892585653533
C         5.58489974463115    0.31760803312343    1.60389078049307
H         5.34089576935549    0.55862814722596    0.57878064707972
C         4.82323815397521   -0.60202991231068    2.29959332142531
H         3.99076904801740   -1.05936617304034    1.78892170952476
C         5.11420470758444   -0.93537175629155    3.61779960428332
C         6.20304848369436   -0.30288633359831    4.21603206673233
H         6.46431637461134   -0.52956181192034    5.23966353363147
C         6.97156884300329    0.61542301551711    3.53339611939079
H         7.81151286815400    1.09172429469060    4.02043047861892
C         4.30732341440255   -1.94714964542894    4.41636301700612
C         3.71900339712084   -1.25615991163917    5.65483438999462
H         3.07922024730301   -0.42854949096475    5.35474856745125
H         4.50136410187410   -0.86456747417440    6.29920758828978
H         3.12392539663159   -1.96135113542317    6.23184141414852
C         3.15111673827866   -2.54877100662405    3.61289009313422
H         2.44783480824757   -1.77921216869970    3.30263183315409
H         2.61361490327013   -3.26534428474053    4.23129476135349
H         3.51712661250449   -3.07309055635766    2.73301520129546
C         5.23222646873239   -3.09302245955564    4.85152064282788
H         6.03914402187574   -2.73248476156484    5.48370412575192
H         5.67169037809897   -3.57264284135606    3.97898815466046
H         4.66988193785480   -3.83921041476864    5.40958600406671

