35
CSD_code = FUTCON | q = 1 | S = 0 | Stoichiometry = C12H12ClCuN3O6(1+) | MND = 5
Cu        2.53079633368443   -0.38657440366298    6.35206150498748
Cl        0.25884428297130    0.43473935394804    4.90694861782841
O         2.11795341616459   -2.11456305562108    5.93953324455952
O         4.23991264622516   -0.60719990908084    4.98005124429872
O         0.24522020630645    0.37373397507516    6.34836003186136
O         1.70392436896544    0.34496981892667    4.57805597303024
O        -0.38789514163301   -0.68247867421189    4.37205633803953
O        -0.22111221023435    1.65427933972660    4.44686002510217
N         1.95789801795677   -0.69499959582080    8.23053417769381
N         2.51831377285774    0.23931063471493    9.00754252069735
N         3.07906596198668    1.27999791941267    7.04566876305794
C         1.01237688177565   -2.62474895764265    6.33952091161195
C         0.56492209796011   -2.54705942179110    7.70883828447656
C        -0.55409278336178   -3.28646980368386    8.10754533597081
C        -1.26659425842996   -4.03954239896520    7.19828236496127
C        -0.87177367993292   -4.07889828641276    5.85698417995782
C         0.22737518683263   -3.38112196338469    5.42936108956708
C         1.16982474217173   -1.63113140779317    8.61637930909928
C         2.94005081252508    1.37865453500748    8.37355841351276
C         3.21525984200071    2.57461711957889    9.03997628451818
C         3.59952229216251    3.66759001637217    8.28868788052041
C         3.69123167081030    3.55589834049005    6.90326779374574
C         3.41708950310837    2.33541634317744    6.31817661970695
H         2.43480475211410    0.19651215938520   10.02078882950770
H        -0.88847580190527   -3.22417033727153    9.13230672576560
H        -2.14505845222158   -4.57897300417212    7.51634262645130
H        -1.44590972397337   -4.65473354180009    5.14738493466909
H         0.56264922959112   -3.42200895076833    4.40581614687366
H         3.09623885024990    2.64046641383686   10.10928174654533
H         3.81234477340515    4.60765148575109    8.77407453577616
H         3.98312148413506    4.39463147683599    6.29400253160120
H         3.47375272742496    2.17201915328072    5.25256835442596
H         4.34923425788810   -1.55623921446932    4.83686047770323
H         3.82383162217522   -0.25797065875388    4.17965583124408
H         0.88195231824665   -1.69860450021101    9.66526635063614

