79
CSD_code = FUTHOR | q = 0 | S = 0 | Stoichiometry = C36H38Cl2N2Pd | MND = 4
Pd       -0.80989959110111   -0.89030079258379    6.60659767309312
Cl       -0.69067561171995   -2.90237458014725    7.71161450337266
N        -2.47851416761392   -1.34344918346645    5.96051289543088
C        -3.52375474979486   -1.62410787065218    5.55558407501670
C        -4.78924578745107   -1.96440796011001    5.06466297831675
C        -5.35836044368907   -3.20071960727925    5.39230021027673
C        -6.60568432389970   -3.52559576551782    4.90748814103549
C        -7.31232590114788   -2.64142143430474    4.08845857273904
C        -6.73134836097347   -1.41224694205030    3.76673290280223
C        -5.48698562551985   -1.06844566597681    4.24607985830930
C        -8.64077061961661   -2.99562185827627    3.57752691986484
C        -9.56349005295286   -3.65448348139491    4.38817712559395
C       -10.81751453711326   -3.97562798190882    3.90847546833380
C       -11.18744505889343   -3.66000335131235    2.60630766095804
C       -10.26307200627395   -3.01281814421553    1.79513042960315
C        -9.01143096098052   -2.67774060238359    2.27221680000523
C       -12.53366816087717   -4.05420693494441    2.07716246590430
C       -12.47933272014706   -5.47314362201943    1.49567788091910
C       -13.79799989448947   -5.91351408374406    0.86132467643698
C       -14.92646315688168   -6.10658918393638    1.87227816569190
C       -16.18607128582355   -6.64866995182880    1.20757832764627
H        -4.81117097455632   -3.88756894116801    6.02005663652775
H        -7.03609860717746   -4.48625822542345    5.14713028620533
H        -7.27588299988356   -0.71313178649358    3.15007313702234
H        -5.04264355563903   -0.11537947729993    4.00221336119982
H        -9.30491186860197   -3.88919496937448    5.41040946917699
H       -11.52473337055836   -4.47507246707262    4.55525147255947
H       -10.53017697828509   -2.76538131795444    0.77758291008291
H        -8.30326341400670   -2.18801086796542    1.61984493204889
H       -12.84464018071785   -3.36012189276567    1.29366521510481
H       -13.26794750670074   -4.01758732867558    2.88275506046212
H       -11.69245592040888   -5.50620224721408    0.73793342757478
H       -12.20315342497850   -6.17371767489047    2.28714598162384
H       -13.63182849075695   -6.85997855188065    0.34064082041059
H       -14.10440801434993   -5.17705663038235    0.11452270633052
H       -15.16116465830268   -5.15525176297553    2.35275154580174
H       -14.59845359207298   -6.80188124299074    2.64863676308637
H       -16.98021421269905   -6.77832574307682    1.93919655954146
H       -15.98868080157237   -7.61156792559308    0.74127334205574
H       -16.53648740508971   -5.96287271946624    0.43913097211598
Cl       -0.92999545912316    1.12207915315105    5.50213770987760
N         0.85877320956227   -0.43714604251167    7.25248320871608
C         1.90283480270067   -0.15498137377599    7.65921676679317
C         3.16818441030614    0.18578471200218    8.15013241416324
C         3.73802228643944    1.42114244335439    7.82018983094741
C         3.86528085786807   -0.70898883938659    8.97056678379868
C         4.98553427823603    1.74620094436580    8.30440115143818
H         3.19125144526713    2.10708470781200    7.19107494297612
C         5.10981873002672   -0.36500010357282    9.44929477313450
H         3.42035839644179   -1.66131248161241    9.21627243920549
C         5.69155416236782    0.86320358034677    9.12522060372556
H         5.41657680617632    2.70609759361315    8.06284010383813
H         5.65392337272763   -1.06325105932390   10.06730947472097
C         7.02007961662340    1.21749751978038    9.63586183849201
C         7.94369776486080    1.87409430175145    8.82442338913121
C         7.38983525350663    0.90180986318270   10.94197051172406
C         9.19777636417806    2.19509274652906    9.30413976560243
H         7.68580715627558    2.10713319501873    7.80163300711627
C         8.64151460867063    1.23669845299634   11.41902053374771
H         6.68090968852818    0.41395199141828   11.59491685241668
C         9.56683141891968    1.88155526054866   10.60704983570998
H         9.90571865302825    2.69275405886281    8.65677585332227
H         8.90792785733971    0.99095387550786   12.43715795380649
C        10.91309022486248    2.27548744910165   11.13629676304571
C        10.85900299766149    3.69449534162150   11.71762688380172
H        11.22371565420466    1.58142635510531   11.91995974488402
H        11.64751089239672    2.23854391622559   10.33085567555817
C        12.17770345378503    4.13457070765281   12.35210634261650
H        10.07202898635841    3.72782219929397   12.47525731973083
H        10.58310698882544    4.39505168680719   10.92604657122896
C        13.30626293286659    4.32760605343558   11.34125519977989
H        12.01167015994545    5.08099203015474   12.87291237607225
H        12.48395406940904    3.39795882426926   13.09882371944672
C        14.56597209266182    4.86924083467400   12.00611828802069
H        13.54075104917023    3.37631719730645   10.86058138184486
H        12.97844631381528    5.02314125247821   10.56503446433870
H        15.36018669534951    4.99887910123552   11.27457029546248
H        14.36877452289922    5.83207805752011   12.47263250875747
H        14.91617627819183    4.18318526378126   12.77443039072961

