107
CSD_code = FUTHIN | q = 0 | S = 0 | Stoichiometry = C55H47OP3Ru | MND = 6
Ru       14.13446390265852   15.20975409877316    0.91914319712675
H        12.62614519796169   15.62852322148596    1.08228268748654
H        14.57557695137289   16.61326762255738    1.35308642375797
P        13.68512479915692   13.04271868120182    0.26497359296801
C        14.33907132391266   11.68965340263003    1.32949799060661
C        13.76192266721989   10.42516965533213    1.39109499231692
H        12.87096388316537   10.20319737316829    0.82346013421202
C        14.31067846673805    9.44500537785318    2.19942626337944
H        13.84612842088943    8.47018514045260    2.24300202748555
C        15.44395396121020    9.70530000016202    2.95152276519464
H        15.86539768618539    8.93716849807510    3.58319393328998
C        16.02998632980093   10.95856494948645    2.89319906007023
H        16.91054191687849   11.17970268733345    3.47918619475185
C        15.47848257102340   11.94054896230453    2.09064972658700
H        15.93036040849200   12.92324962312613    2.07240458808883
C        14.55157599440642   12.57396558849634   -1.28106955194184
C        15.87005378521911   12.12670537740246   -1.24383514682031
H        16.35834392079102   11.95818671642080   -0.29373427911971
C        16.56536023658774   11.89898271608537   -2.41816361682446
H        17.58733589665915   11.55064365038232   -2.37402290092604
C        15.95941226808342   12.12271056619033   -3.64317442971870
H        16.50640892754544   11.95115949688221   -4.55866576580436
C        14.64812575358626   12.56620960304862   -3.68876643789999
H        14.16517943413331   12.74191729328945   -4.63928171058236
C        13.94822229885823   12.78979587189690   -2.51794340805478
H        12.92271976722114   13.12619012579362   -2.56160501766428
C        12.00369224130586   12.39015981410076   -0.05458033584462
C        11.72886655817326   11.35689646168688   -0.94846503822961
H        12.52684627766204   10.90544321140976   -1.52221205667491
C        10.43237733794818   10.90283910105120   -1.10729348683483
H        10.22815583693344   10.10554534418571   -1.80797569748570
C         9.39904230948505   11.45898902262304   -0.37031230826805
H         8.38879874870256   11.09816051532090   -0.49942771674999
C         9.66678116998771   12.47557739055820    0.53018547472443
H         8.86867934311413   12.91134612836571    1.11387561100707
C        10.96067616372432   12.93869983626447    0.68216856421754
H        11.17182226931902   13.74274169817907    1.37411538530281
P        13.85556929260698   16.28287668623508   -1.10070591509891
C        15.26728718880177   16.61832301779794   -2.21649245230886
C        15.41789194478866   17.81373412340625   -2.91462447220046
H        14.69557165650109   18.60852328457004   -2.79050823019322
C        16.49002292208912   17.98510191551262   -3.77165050048261
H        16.60359480353957   18.91792670672462   -4.30542124091848
C        17.41328783271309   16.96756965962070   -3.95130518317379
H        18.24919650262301   17.10840327701751   -4.62096903560975
C        17.25977764575035   15.77044265684058   -3.27247921298494
H        17.97066669684633   14.96898189717775   -3.41134900771998
C        16.19348271772513   15.59952886084887   -2.40945550158896
H        16.07115875563789   14.66583112160547   -1.87920312230494
C        13.24755199690928   17.98330581587965   -0.80592270695746
C        11.94374392946412   18.38681471104979   -1.06042120218284
H        11.24177995563619   17.70373943092161   -1.51733887920252
C        11.53527252676080   19.66768762016443   -0.72451203307437
H        10.51739068937157   19.97210533427092   -0.92269924551719
C        12.42072948377043   20.55328552172997   -0.13694811723505
H        12.09663826807370   21.54982755693633    0.12603872159014
C        13.72622805158101   20.15792784274748    0.11449348008861
H        14.42212734347555   20.84593780182493    0.57269398773377
C        14.13574632156505   18.88155230589783   -0.21540273107090
H        15.15061056238872   18.56135268157547   -0.01209128104576
C        12.62171810819493   15.69299544565784   -2.31828163185976
C        12.83221864424051   15.70676175990627   -3.69275320365209
H        13.75548462385878   16.09293164721182   -4.09899998486732
C        11.86200806224172   15.20929611807055   -4.54582316813439
H        12.03461645487836   15.21850994276773   -5.61269363443859
C        10.67867472697495   14.69566253694065   -4.04167379572829
H         9.93103863227850   14.29889829552091   -4.71304311992598
C        10.45730353790320   14.69071979122989   -2.67358575239990
H         9.53775571235466   14.29034559825272   -2.27088638780109
C        11.42309732108875   15.18805464560884   -1.81925676736777
H        11.26343592061567   15.17877420583601   -0.74953267093497
P        13.85116347009679   14.93813423323265    3.19049518709038
C        12.44807953181368   13.89572660858790    3.73002391482905
C        12.55283936295033   12.51167861349609    3.83715603505852
H        13.50986101455095   12.03068988331303    3.70680371463567
C        11.43595818578072   11.74324164892322    4.11185429954720
H        11.53530968525869   10.66998327372214    4.19129611699859
C        10.19940781409853   12.34272774168013    4.27913166139058
H         9.32858588077824   11.73983397319443    4.49159428172723
C        10.08410930339653   13.71875470948122    4.16807446882705
H         9.12131731144201   14.19347882902368    4.29389341465284
C        11.19723771892888   14.48994947234485    3.88905099560044
H        11.09944937326542   15.56203691421918    3.78179146182491
C        13.41910649190441   16.46589510117134    4.11704946930940
C        13.44736266115131   16.44425869348631    5.51019605307291
H        13.74169509934795   15.54350495162026    6.03060762509593
C        13.10276905234789   17.57027790622659    6.23349248460202
H        13.13418016643847   17.54387660917075    7.31336096501574
C        12.71832926804457   18.72941399851594    5.57833972479876
H        12.45260020217071   19.60909254415425    6.14648159092770
C        12.67338916768696   18.75260904165799    4.19527429823687
H        12.36706982381317   19.64915025311864    3.67545505802277
C        13.02018423571489   17.62716166448424    3.46787914879123
H        12.98054913973827   17.64707439841776    2.38721618227668
C        15.24734030255085   14.40868270928127    4.25362270335890
C        15.18034237500726   13.51435362834801    5.31535941963567
H        14.24231742246477   13.05209609188161    5.58680467877883
C        16.32138588272170   13.21565237973311    6.04074239268408
H        16.26281659137931   12.51216896060298    6.85932450421840
C        17.52998693471094   13.81319704489706    5.72695109850324
H        18.41691527756420   13.57060217799294    6.29412183922947
C        17.59672758336939   14.73010118354856    4.68970484363019
H        18.53365904944591   15.21148736355453    4.44994018960369
C        16.46157540826213   15.02415261362303    3.95983890442521
H        16.49836367922251   15.74066929678224    3.14629676949737
C        15.93353054029857   14.87172875011572    0.72231354989070
O        17.07343113373894   14.73795209520924    0.58962524573251

