73
CSD_code = FUTKUB | q = 0 | S = 0 | Stoichiometry = C33H34ClCuN4 | MND = 4
Cu        8.07685631101036    2.88109722971427    4.99692457940921
Cl        7.36269402002041    4.14030032928832    3.31800858734049
N         8.78977533640568    0.35421933086525    3.69604484098566
N         6.81141367382723    0.26783215433272    4.54318380701046
N         9.82237594383072    3.70932264697904    5.64293127998611
N         7.40673247941272    3.57593849496953    6.75389977323543
C         7.89788288022946    1.02081270327588    4.41873577185138
C         8.32049993952382   -0.96105437862514    3.26002595102590
H         8.31303997663430   -1.02116350595105    2.16794853512422
H         8.98434390547343   -1.74464099423831    3.63836409219901
C         6.91806301472705   -1.02491616965180    3.86720738550388
H         6.80469952224251   -1.83969792591794    4.58916356223643
H         6.13228385050371   -1.12680485707028    3.11305744853613
C         5.63262239742066    0.63137523244433    5.24234019001568
C         4.62400739293008    1.33102350312789    4.57496184913541
C         3.47226906365309    1.64954895931330    5.28039283730048
H         2.68488589642984    2.19524768903500    4.78021812254732
C         3.30884500159556    1.29377392148892    6.61286166864810
C         4.33533491430552    0.61697892248436    7.25430357966829
H         4.22980616510863    0.34995771148649    8.29654921210913
C         5.50556979702265    0.28518827801370    6.58663587085609
C         4.80107186431148    1.76309047960294    3.15753113580936
H         3.87421856906125    2.16475657311594    2.75788375985055
H         5.13008825133303    0.94182489000129    2.52465663722148
H         5.56538547505720    2.54380295404814    3.10576307928564
C         2.05009180812783    1.66082702346089    7.33938166407812
H         1.93661887588127    2.74407271342923    7.37465875076799
H         2.06051145943597    1.27899981839235    8.35735667861106
H         1.18137311300998    1.25453699353823    6.82340093463887
C         6.62452490580797   -0.41055354588429    7.30239917257301
H         6.67220293598077   -1.46328772730822    7.02217607684496
H         6.48180222720053   -0.35386751839788    8.37839273607855
H         7.57664276044672    0.05331534395900    7.04893557436951
C        10.07979754338622    0.82289209714033    3.33962774220249
C        10.25546186304530    1.52144127987540    2.14277485515328
C        11.53850347680354    1.93073827141837    1.80763724263204
H        11.69127399905088    2.47534924842669    0.88667600537395
C        12.62773326474644    1.67105380154728    2.62902147498667
C        12.41734947523171    1.00252206879703    3.82592492698787
H        13.25208002154732    0.81484601346270    4.48679353705315
C        11.15019744719947    0.57847693360034    4.19851104707844
C         9.08831205691013    1.87146099002012    1.28100858203047
H         8.46298648109922    1.00594942674688    1.07332175620713
H         9.41866391644851    2.29924819681944    0.33851794048694
H         8.46811109619206    2.61016436864664    1.79743989284404
C        13.99704404726143    2.12871870313190    2.22614944231431
H        13.99840794249723    3.20147917335595    2.03672143748542
H        14.30675554986524    1.63105305286221    1.30747626169065
H        14.72703358633786    1.90901297335102    3.00136636505700
C        10.92100024309980   -0.09687465805614    5.51760254076646
H        10.13691833192202    0.42529789956443    6.06573573129490
H        11.82986109187961   -0.09045680805345    6.11373206549185
H        10.60759454907086   -1.13177555580867    5.38172960889954
C        10.98174372595228    3.84610186963828    5.03315859079104
H        11.02407860036058    3.50465304041135    4.00959933887149
C        12.09994914166959    4.39886736971456    5.65325421693050
H        13.02778032602116    4.47473965277013    5.10848021799866
C        12.00281592694209    4.84154669493010    6.95763675251418
H        12.85369148414670    5.27077853100560    7.46734664087019
C        10.77074360715478    4.74628623141675    7.61732722532639
C        10.54383814052480    5.20476000474944    8.94725317217169
H        11.37726662183672    5.63179610114240    9.48694285691277
C         9.31828437471464    5.12185426588059    9.51935503775587
H         9.15327999575755    5.48031636585942   10.52555577190657
C         8.20628468511877    4.57842645500755    8.81226782161489
C         6.90819867646286    4.51219830486382    9.33450115957691
H         6.71125503763860    4.87033104753428   10.33475093078554
C         5.89526934262685    4.00373799524332    8.54401447905338
H         4.88018294609959    3.95462800459916    8.90562098232131
C         6.18763880885063    3.55649144994358    7.25932682274973
H         5.41126171414914    3.17486986446347    6.61306832408789
C         8.40692869787115    4.08943757577124    7.50217720928184
C         9.69568843457716    4.16832442489253    6.90509884757362

