79
CSD_code = FUTLUB | q = 0 | S = 0 | Stoichiometry = C40H36P2Ru | MND = 8
Ru        2.92399834877805    1.40417680669739    1.94855066204916
P         1.87490303059577    1.60463643647046    3.91000151572046
P         4.46750788329979    2.65924010871003    2.97667359835445
C         3.21391934037297   -0.77096205866927    1.44493980692344
C         1.90858238312145   -0.38053040637291    1.02164877847220
C         2.04224043457921    0.60772147882098    0.01850323755769
C         3.42781685680529    0.86361308076078   -0.16066232165370
C         4.14446258269012   -0.00701967606937    0.70977432115361
C         2.36928020386313    3.47641289157000    2.19299852538039
C         1.56265791729457    4.32243509723168    1.54877645459537
C         1.26673345813509    5.73527886572541    2.00127222544039
C         2.36904903766799    3.24505237396298    4.62867937214154
C         3.13870851798755    3.85243355959508    3.45992802743913
C        -0.45711318316318    3.90641539968933    0.12375935831570
C        -1.02863567611440    3.58443289734822   -1.09342830123917
C        -0.22786938114748    3.33394054131420   -2.19581732642256
C         1.14947649226243    3.40689410719343   -2.07330241994669
C         1.72193622080314    3.71667873859932   -0.85255626792673
C         0.92624924943715    3.96281738309088    0.26230573119478
C        -0.65163225637102    1.81999436986810    5.12189125595635
C        -2.03028805318229    1.91286660087112    5.09779554076985
C        -2.70772330442879    1.89797701720701    3.88751889223159
C        -2.00579875407711    1.79342329351193    2.69819773960992
C        -0.62525841053447    1.70447000060406    2.71860066082169
C         0.05501949960001    1.71709175040361    3.92757847747968
C         2.75055834101559    0.55073167741161    6.45259338240992
C         2.90068741374549   -0.51557292279420    7.32335051988158
C         2.39817905848932   -1.76347325162935    6.99925775776815
C         1.73656894576297   -1.94957559653759    5.79451633005943
C         1.58797559324606   -0.88846395971507    4.92529429306324
C         2.08658811401772    0.37414404265345    5.24551407660156
C         7.02650144874241    3.33944105746910    2.11926291576809
C         7.93977855298819    4.04576058834742    1.35806192024306
C         7.51036095202456    5.07357125283806    0.53458753681367
C         6.16201232493298    5.38868344778640    0.46610706190823
C         5.24415620854117    4.68487591659336    1.22255778207946
C         5.67366882525728    3.66627630322269    2.06950876542703
C         5.45192317864417    0.88463444271591    4.85471444642520
C         6.09505730166393    0.51709952596992    6.02299600663087
C         6.66209977765894    1.48941405355247    6.83051441321015
C         6.59427342613472    2.82742832820157    6.46925197132100
C         5.96153580793267    3.19781051585735    5.29758664514455
C         5.38834107602730    2.22240476363774    4.48693750066461
H         3.44222531972895   -1.60887283794161    2.09144507209372
H         0.98616660071138   -0.88349459488418    1.28884510432620
H         1.24108388354295    0.99493646912235   -0.59609110276380
H         3.86654831566787    1.44366986710561   -0.96205093304561
H         5.22052000898379   -0.13719895645163    0.71760171845147
H         1.47568577149863    5.87247309021128    3.05876797612366
H         0.21854191967746    5.96724060463840    1.82158164602356
H         1.86471762859244    6.44974245008729    1.43147730722762
H         2.98548704355492    3.15444691175752    5.52792604440385
H         1.47336033822322    3.83218656647440    4.85956472280824
H         3.42582729845678    4.89953015671712    3.60574998587024
H        -1.08569076796393    4.09748732349947    0.98244389139539
H        -2.10464902306725    3.53055959433056   -1.18585628535946
H        -0.67637548003987    3.08612830236961   -3.14736265090656
H         1.77849314662140    3.22051246380886   -2.93285812656391
H         2.79673567484204    3.78023742858912   -0.75337731896677
H        -0.11411876907721    1.82235649367140    6.06154191097317
H        -2.58207594242458    1.99476385896426    6.02339883130626
H        -3.78585546821334    1.96798470357909    3.87477795850755
H        -2.53426072800187    1.78127148439265    1.75567572948556
H        -0.05216514498791    1.63561466373543    1.80132513390296
H         3.15476668698505    1.51377156997151    6.72785054947662
H         3.41735354970391   -0.36816098370430    8.26114912278342
H         2.52210309714825   -2.59129139679254    7.68210362455176
H         1.34310643713957   -2.92273430394002    5.53756716431608
H         1.07901911363103   -1.01601891690670    3.97668421729379
H         7.35643492908444    2.53288628690549    2.76127007697207
H         8.98925583772042    3.79226780278623    1.40404651420677
H         8.22508048109725    5.62414527291225   -0.05952019652484
H         5.82650768019859    6.18436589157949   -0.18376045464495
H         4.18921600259129    4.91135694357477    1.16153627875055
H         4.98586241786244    0.14655106560589    4.21189469462638
H         6.14754707741868   -0.52356233185689    6.30834769598631
H         7.15944711168779    1.20649155007469    7.74696461194322
H         7.03737239044009    3.58048008530903    7.10536078885808
H         5.90923677587807    4.23669457697987    4.99823782627294

