115
CSD_code = FUTLIR | q = 1 | S = 0 | Stoichiometry = C58H46Cl4N2O2P2Rh(1+) | MND = 6
Rh       -1.48800986998734    7.61712076708930   11.88332104233718
P        -1.25978718977447    6.47233931290428    9.90522519374343
P         0.20989562278399    8.99416981830839   11.18079857303350
Cl       -0.33662033583814   10.74308070916468   -0.28643906309851
Cl        1.56564773561866   15.10546466973297    2.20204291048666
Cl        9.97971728317453    5.36003150845171    7.36915701476280
Cl        7.20609877190407    1.02734729918477    5.82712902269770
C        -0.90937213112860    7.38124759458746    8.35933340251415
C         0.34654906695987    7.96919593206566    8.16452213033284
C         0.58343454136644    8.74255139887262    7.03699474946098
H         1.55596619550800    9.18420007017804    6.89763278354080
C        -0.41743631422936    8.98019011343198    6.10239420663064
C        -1.64693514436992    8.34575478936518    6.26672668323198
H        -2.42278602074922    8.46940673638524    5.52520430967847
C        -1.87976644417880    7.56133155968017    7.37533352809205
H        -2.83421438712894    7.06796510832720    7.45925176251260
C         1.64873904256037    8.25116989638907   10.33511583076264
C         1.51834227338823    7.73923973754363    9.03775674708925
C         2.57500748000429    7.05659365959394    8.45153295506081
H         2.46195149968085    6.67277187447543    7.45146359465119
C         3.76049170719606    6.83217994000977    9.14135645458604
C         3.91329908725219    7.40037852623456   10.40440454144701
H         4.84725358954141    7.29277645497949   10.93667406856343
C         2.87406979563673    8.09679501820854   10.98147012989020
H         3.03535087587280    8.54305859610150   11.94874531951676
C         0.74803602092203   10.74435546699327    4.81685869356443
O         1.58399011047610   11.01900651040547    5.64837910962144
N        -0.22507707172062    9.79522579688661    4.99329954861278
H        -0.95828279875040    9.75852266727457    4.29840309725743
C         0.66669777079575   11.44835218458755    3.50178771134342
C         0.22454198767548   10.81602163971595    2.34362938256792
H        -0.06047321219611    9.77528914674688    2.34079611116699
C         0.20117483592374   11.52493239559762    1.15203712652329
C         0.60214423595603   12.85150916696195    1.09696384193865
H         0.57467091746236   13.39370090892725    0.16580482081888
C         1.05231510566650   13.46467171051310    2.25772093697559
C         1.09541005818605   12.77068513095000    3.45607337748180
H         1.46050653297210   13.23940877157092    4.35598707879964
C         4.76616721224394    5.22054820089827    7.55332412872811
O         3.76268178638312    4.96473592758284    6.92624152108180
N         4.81016499153853    6.09418472624116    8.60823842850476
H         5.66992999960113    6.12444498633230    9.13914247835139
C         6.07875823550629    4.56901943055126    7.26178332382397
C         7.29453869304968    5.21829635408341    7.45383881806086
H         7.34265663968552    6.23916243105210    7.80015141096857
C         8.47238204143467    4.55665524992033    7.14073985004478
C         8.45940818824011    3.26007264983492    6.64844825673159
H         9.38178873464810    2.75409900777522    6.41397027261443
C         7.23870233489551    2.63048022622730    6.44994526546936
C         6.04996970346381    3.27814971047155    6.74478927961519
H         5.09950370404057    2.79749016600230    6.57631645583600
C         0.16402961389106    5.34916476654432   10.00310217295883
C         0.60475345085337    4.63933523582535    8.88989739030792
H         0.08606855147562    4.74270044405708    7.94689818081693
C         1.71247616639570    3.81949546485242    8.99174014614212
H         2.05912997493404    3.27994473269585    8.12477445725280
C         2.38804401579265    3.71322568835561   10.19768793423578
H         3.25861892513619    3.07876115342140   10.27145354128955
C         1.95235295492359    4.41834765262114   11.30839036006313
H         2.48237734728920    4.33230457773106   12.24536777308662
C         0.83917169725945    5.23272641575422   11.21262568686783
H         0.48781150784317    5.80486487373223   12.07197922508319
C        -2.64993955747677    5.38656394339563    9.42980272209641
C        -3.89440289410510    5.97588581712816    9.19364977683203
H        -4.00044981221838    7.05185850170333    9.27129603330251
C        -4.98858004400164    5.19840520764366    8.86277158052070
H        -5.94350514671352    5.66519692022385    8.67239727156295
C        -4.85943883973895    3.82075302440811    8.78355818621799
H        -5.71292318602605    3.21276062746685    8.52690553721334
C        -3.63629215711139    3.22720675820471    9.04402732607181
H        -3.53543215492872    2.15372202003840    8.99524787731872
C        -2.53612738078192    4.00249902344648    9.37030188309866
H        -1.58885866251443    3.52658653632853    9.57779353640175
C        -0.42196793206264   10.15283911670547    9.93323927188776
C         0.43237282833746   10.97756163658597    9.20739465194778
H         1.49768738080365   10.93988546024295    9.38754340678300
C        -0.08413909100596   11.82907539586524    8.24934099635252
H         0.58218632229256   12.45682832564650    7.67916653805767
C        -1.44920133805029   11.85617549705315    8.00862686849294
H        -1.84894845839256   12.51749138600603    7.25455287841910
C        -2.30354332494171   11.03827153851538    8.73104526829131
H        -3.36615448882312   11.06397102151086    8.54022148207629
C        -1.79092051398377   10.18928753446901    9.69434083968733
H        -2.44517391041472    9.52976692856036   10.26596378179772
C         0.97349484493062   10.08599355378121   12.43296550250413
C         1.63391024128548    9.50536032425173   13.51824797312096
H         1.71119880642317    8.42682079031325   13.58702004343990
C         2.19146807442353   10.29502973982821   14.50683318002097
H         2.70798158554661    9.83450876418862   15.33576341474790
C         2.08056086162969   11.67442615881511   14.43648223266657
H         2.51386488482985   12.29115624849438   15.20837347195883
C         1.40423783256161   12.25694228199279   13.37843237153090
H         1.30513039993299   13.33040886141588   13.32547986889787
C         0.84871665254939   11.47027221876537   12.38368948937393
H         0.31765558728723   11.93825165607442   11.56788671179081
C        -3.49438435176328    6.78634730966609   12.37563000569895
H        -3.97145806881125    6.55305104674719   11.42769703198918
C        -2.52314238940991    5.91290696991684   12.81342255503989
H        -2.31423544495215    5.03801532577182   12.19362844364196
C        -2.04419110197198    5.77380332249871   14.23460833126972
H        -2.75340230532387    5.14666830055622   14.78411439749023
H        -1.08962907207147    5.24043032265579   14.22612126918496
C        -1.86427313881356    7.12206696034351   14.95505530634899
H        -1.13038248736049    6.99242885778125   15.75235666529658
H        -2.79432483617497    7.43731947315476   15.42631144223258
C        -1.37708181483008    8.20673706401623   14.02316055381317
H        -0.35103521269742    8.51385339891685   14.20495178479919
C        -2.18043904298449    9.10117788242223   13.34962589103104
H        -1.74017100997094   10.05942677278841   13.06456689449814
C        -3.68644317565149    9.10937973000916   13.35971756816751
H        -4.03352235926589    9.71685099666276   12.51927226001681
H        -4.02873179549843    9.60594204078312   14.27323180750828
C        -4.30632158806010    7.70443865533819   13.25851758597234
H        -5.30804881278709    7.79797758035020   12.83563244390519
H        -4.41727709607755    7.25726250949970   14.24548070142993

