113
CSD_code = FUTMOX | q = 0 | S = 0 | Stoichiometry = C46H54Cl2N4O6Pd | MND = 4
Pd       -0.09440264257421   22.35817410031212    4.23745684085474
Cl       -1.65140457196210   23.10139702409734    2.69845682790866
Cl        1.63684884865111   21.84034287474029    5.63971638918284
O         3.93063964800139   23.61046581797203    1.76304386725394
O         5.80168479554918   23.21694079170361    0.03229028033507
O         7.57204179671101   25.53265145786373    0.10517851910676
O         5.96623149058915   28.09768142637323    0.86800916150942
O         2.68653933664743   26.86545156974597    1.27180547713330
O         0.75478181898983   26.48434756596048    2.94351625779553
N         0.94083366438859   19.86091941078851    2.94203257416393
N         1.45569258690455   21.60409697411369    1.78991946127478
N        -1.89136208289231   23.26334926120052    6.50960996157470
N        -0.51310679392914   24.79208046681504    5.90210151220068
C         0.79315482708955   21.19636076011492    2.88638633049892
C         2.00421990782234   20.52788277033651    1.14526228646715
H         2.57610796528034   20.62698455477690    0.24569110760000
C         1.67881448168420   19.43008001723640    1.86728365396536
H         1.88568435857380   18.39435034390202    1.69159667068842
C         0.45580801179377   19.02428295261539    3.98857633865731
C         1.37235078061014   18.34446867415243    4.79816874970125
C         0.88881776266880   17.48984699682074    5.77462436214949
H         1.59192352591596   16.96989056144011    6.40938424702245
C        -0.47198590508915   17.29079614614546    5.96271665739168
C        -1.35781227179833   17.99904942151109    5.17019363591294
H        -2.42021545201188   17.87203922954042    5.31005220522667
C        -0.91776487287241   18.88258155067688    4.19332103172822
C        -1.91844350478127   19.67899689644510    3.41651394055618
H        -1.99403447526384   20.68425441766721    3.86226589118299
H        -2.90229087530750   19.21993484691668    3.47066598111271
H        -1.63432892099072   19.78822037476266    2.37005210573842
C        -0.95746344612415   16.34540982339650    7.01940851043067
H        -2.03485545908232   16.21381126509256    6.95861564535465
H        -0.70752570484540   16.72695179009013    8.00924015503187
H        -0.47994532701696   15.37293308264637    6.91071166895610
C         2.84267241872374   18.59540474438632    4.68450237513073
H         3.21010147884664   18.45657319661250    3.67039788636054
H         3.39348858579986   17.93729083017368    5.35132307527691
H         3.03433673640724   19.62760664753479    4.97923211790862
C         1.58925092022686   22.99425952440032    1.42425533604964
H         0.61495058226062   23.48061082134327    1.55815725258841
H         1.88499807190904   23.06262314136231    0.37503484595999
C         2.63003728705088   23.72761651467877    2.29274903598204
H         2.42795411075280   24.80123575048048    2.27340481425204
H         2.55950367131671   23.37020307715960    3.33205120682314
C         4.66909287199053   22.47863255490337    1.96011369980544
C         4.51734493986759   21.57945472929779    3.00257224305891
H         3.74855810968823   21.72025873941998    3.74697312979062
C         5.37843890149169   20.49874343903273    3.12575864339295
H         5.26846489517170   19.82699445790453    3.96170060057305
C         6.37288095410601   20.28889692454373    2.19495407827369
H         7.03258871010467   19.43888431003534    2.28052968717126
C         6.53538867704817   21.17682552153823    1.14154627975325
H         7.30924518654885   20.99711723872283    0.41119865471391
C         5.70802379426106   22.28021888049351    1.02450772840825
C         7.02927071136720   23.35593336592039   -0.64251230721799
H         7.04734914750978   22.71842508351186   -1.53827926124403
H         7.86701471081355   23.09237943879026    0.01202216509426
C         7.18817698643582   24.81974394706579   -1.04552833056119
H         7.96117282689490   24.91196711303579   -1.82502351156923
H         6.23358817297197   25.18244352088130   -1.44868221977033
C         7.88603181058124   26.88897571626898   -0.09741990370780
H         8.56923497108170   26.99221857614155   -0.95504195397015
H         8.40275173197912   27.19945014926425    0.81394105474583
C         6.68127501155423   27.82115677945313   -0.31359594519369
H         7.06174272140713   28.78960645996022   -0.65091243935293
H         6.02060007173915   27.41664495820227   -1.09008559430690
C         5.05895151241461   27.09688996723306    1.28599643580583
H         4.76442014362392   27.38339293847468    2.29782013649678
H         5.53102642769149   26.11118171802997    1.31708692555749
C         3.78858634210721   27.06888054891913    0.41741846852379
H         3.69814740391648   28.03928994638417   -0.09286376616357
H         3.83250214380585   26.26543042099619   -0.33038752398981
C         1.43249516803953   26.91850805142475    0.73613375572855
C         1.14059095720719   27.14932290971397   -0.59684872509631
H         1.93377165119996   27.29986883218217   -1.31149805067528
C        -0.17710780792493   27.18539403187687   -1.03402852611393
H        -0.38395367941636   27.36587135215453   -2.07786217088433
C        -1.20699704435599   26.99247571649290   -0.14069385218079
H        -2.23293614172648   27.01934159981216   -0.47312234760831
C        -0.93249862643601   26.75830717699513    1.20016408265120
H        -1.75300216450759   26.60462070602136    1.88120884435022
C         0.37486354954727   26.71331770181909    1.64957004016857
C        -0.24176862313686   26.08741097895168    3.85815510311514
H        -0.87736996954362   25.30690152911773    3.41447576866924
H        -0.86949871247363   26.94463583802473    4.14386848419829
C         0.45119369898738   25.49479571423979    5.09516961619195
H         1.20971284145514   24.77372336535277    4.75046750557841
H         0.93662873909237   26.27479152817436    5.68495215699878
C        -0.90838516906560   23.53248019708266    5.63696430880079
C        -2.11780975948043   24.34710682042654    7.31952901444201
H        -2.85892418303944   24.33636834868739    8.09262061149217
C        -1.25086927509957   25.31233695018013    6.93235532956713
H        -1.09660497754503   26.30308867560883    7.30758720885595
C        -2.64257455702804   22.05225966528042    6.52848300928998
C        -2.17868660829776   20.96028040741423    7.26154617277773
C        -2.96125658048166   19.81428294297036    7.29620447984969
H        -2.61573962880029   18.96674732326883    7.86931275772262
C        -4.16781724139942   19.73932268482793    6.61864626044758
C        -4.59718776599908   20.83927148590895    5.88747548390434
H        -5.53411591997953   20.78689701084086    5.35172656268193
C        -3.85437457319054   22.00783124139706    5.83346009928031
C        -4.32029203389804   23.18588757442271    5.03752792534949
H        -5.31824669169913   23.01289862243845    4.64480132116203
H        -3.64323085653651   23.35251342878946    4.19732423115229
H        -4.33265487436442   24.09230293361430    5.64207769792618
C        -5.01069443788503   18.50035775919806    6.67136034804950
H        -5.97473569411904   18.71923986870206    7.12924571111256
H        -4.52351900051383   17.72046009633113    7.25139056777988
H        -5.20211340640344   18.12435373039807    5.66681757407689
C        -0.87711624393659   21.02635269823296    7.99275369260689
H        -0.05292896384939   21.09140190330246    7.27996511348649
H        -0.73040723843780   20.13767551164943    8.59992863935359
H        -0.82943520760230   21.90580817622867    8.63460076815560

