131
CSD_code = FUTMUD | q = 0 | S = 0 | Stoichiometry = C52H66Cl2N4O6Pd | MND = 4
Pd        7.72826319097379    6.02825679907763   12.78710248135486
Cl        7.95610310714478    6.77560676791504   14.95559708850113
Cl        7.38141590341344    5.72019554962396   10.53571265469387
O         3.42556694036829    8.29172824706566   11.95896906524878
O         1.12026042477601    8.86451769527220   10.95897995060864
O         1.24675310079615   11.85725648279824   11.40515731125462
O         4.16442491960354   11.54307472309451   13.49890323439935
O         6.91645728948503   10.94219947908124   14.42313827434789
O         9.11038099525222   10.39898647677671   12.86921481020937
N         5.28800521557082    4.13784969721619   12.87170420439064
N         4.80534804122219    6.15013686372855   13.43107441039930
N        10.78215096204130    6.41585891416580   12.81452758780841
N         9.75502070317556    7.94323484608381   11.71421787360749
C         5.96104193036314    2.91848064022167   12.58279155209086
C         5.77193652046368    2.30651761142989   11.33914740951934
C         6.37164175356357    1.07269119777041   11.12189986496990
H         6.23299948456054    0.57359325681846   10.17566661129460
C         7.13786502635047    0.46804685291129   12.09823281951986
H         7.59616546679158   -0.49141091463539   11.90712231651759
C         7.31350744535168    1.08688487381799   13.31972490613219
H         7.91304251015384    0.60763351872422   14.07791646245927
C         6.72019138466143    2.31308120486917   13.59066918721572
C         6.91632061052042    2.94913707666535   14.94610588953502
H         6.29591899845321    3.84744122054843   15.02853977244261
C         4.92626142730087    2.92357439642961   10.25008196816566
H         4.61335548173298    3.92592726854243   10.55354204880728
C         8.37449125141526    3.38773831100370   15.08488669935332
H         9.05121933467649    2.54015476334978   15.01208367912395
H         8.53096499101893    3.88325575623142   16.03964606436856
H         8.61922380467035    4.10205707489059   14.28628544623384
C         6.50938343177973    2.00135691873796   16.07590033577729
H         5.48658847529032    1.65635180708865   15.93620397764930
H         6.57160356202992    2.52095016430835   17.02917060888973
H         7.16201970618983    1.13364967818995   16.12001221285439
C         3.67001270090360    2.07878502194287   10.01610942093690
H         3.93210685017397    1.09838282700414    9.62537718937300
H         3.01940584408312    2.57409825578661    9.29896992933377
H         3.11428011762625    1.93707364828818   10.94103168013953
C         5.72185371867001    3.07090818623837    8.95205401980890
H         6.54138228075959    3.76836878758322    9.10206826714506
H         5.07550655163429    3.45971126573104    8.16859314050301
H         6.12392613392835    2.11850204147748    8.61719319456190
C         5.83859780007947    5.34955687852540   13.10297993821419
C         3.92759144087581    4.18853808038885   13.05411041000180
H         3.30862734343877    3.32410827296629   12.93476199432313
C         3.62530483340258    5.45777210458056   13.40227936405844
H         2.68606371685042    5.92326002145029   13.61817491315903
C         4.89579852738968    7.55599801807577   13.72864728575561
H         5.86649390275000    7.75800551036548   14.19616629678402
H         4.09423228164474    7.81691437431787   14.42348138453774
C         4.74441137232761    8.39809850340516   12.45758458611032
H         4.89047081721732    9.45156442737616   12.72229874890255
H         5.49492196599186    8.09474737534254   11.71637168176092
C         3.16174020869196    7.69555781791228   10.75950858228530
C         3.99139812103326    6.82613180212430   10.07179623118171
H         4.95820040405404    6.53935749643355   10.45743132199831
C         3.60396195712961    6.32292644969969    8.83862646542149
H         4.27873542619903    5.66578612826529    8.31420251332128
C         2.38778966405418    6.66857167878976    8.28814821665546
H         2.09116751519790    6.28097127278191    7.32539549097570
C         1.53688977289060    7.52273800456715    8.97470341999260
H         0.58271016723699    7.79497808827040    8.54928960363691
C         1.90917431740304    8.03246757778194   10.20530002095004
C         0.35244096957259    9.84048541799628   10.28652293443914
H        -0.62632738180634    9.43040222456445    9.99859728278716
H         0.87110130941899   10.19024341378240    9.38572804535524
C         0.13163848941796   11.01598489568891   11.24926155916895
H        -0.66046250730875   11.65918445301655   10.85935879225881
H        -0.17507130606590   10.60211033310807   12.22094221239700
C         2.37328103972114   11.22578242318205   11.98446571358168
H         2.98759485002279   10.74884537480441   11.21269492708916
H         2.06201903100282   10.45112683100260   12.69304099348160
C         3.21376421728461   12.25384711111931   12.73647334295921
H         3.70922843806419   12.93937369309580   12.03453740064882
H         2.56354997713289   12.85059534041074   13.39389862309070
C         5.00840634568715   12.37650362277066   14.25342635167420
H         4.40629359111322   13.06394511881487   14.86799574378475
H         5.65223801702362   12.97450593571190   13.59126963044581
C         5.88160565931610   11.52923680639653   15.17717384699144
H         6.29871770845694   12.18583908441409   15.95055192751560
H         5.26496051699418   10.75296165365033   15.64732521910603
C         8.08698664270015   10.62538727655133   15.06079149165322
C         8.24601153582551   10.56197115776521   16.43731608628151
H         7.39618429842033   10.68770654350394   17.08937624168464
C         9.49463808760865   10.33607743559146   16.99323195107339
H         9.59442061006062   10.29915066790682   18.06751937059414
C        10.59955157900099   10.16909204657670   16.18340480022482
H        11.57768496608010   10.02217219583534   16.61496033758656
C        10.44525652329714   10.16948666463201   14.80801251794995
H        11.28907261815266   10.01637429661498   14.15205801305775
C         9.20095798791458   10.38122769317069   14.23838308782300
C         8.08529523937917    9.60612360306390   12.28995870510150
H         7.29315036434306   10.24943113879134   11.89250962464716
H         7.65601507963687    8.92160576284794   13.03715780089939
C         8.71468963872698    8.77605492182830   11.16484960616999
H         7.95223957885054    8.14238935567843   10.69532767611118
H         9.16036623548593    9.43580801404274   10.41774804156715
C         9.55673410983928    6.80539599039688   12.40853497736283
C        11.73357816666778    7.30545139230647   12.38001000242760
H        12.77438347046859    7.16432940915699   12.58515946252977
C        11.08279590854106    8.26965004998313   11.69292848627062
H        11.44592810912320    9.14840203695244   11.20148338939529
C        11.12213411498561    5.23324835780068   13.53027499339067
C        11.13047370930761    4.01253661852223   12.84763612233340
C        11.52983641118063    2.87636267195294   13.53941058039798
H        11.53507360970571    1.92191502582478   13.03637021943750
C        11.92860656201365    2.95393582424995   14.85903644416457
H        12.24639671598451    2.06277602949044   15.38059655213449
C        11.92656616553654    4.17048894968339   15.51225567299116
H        12.24871040981631    4.21886889550339   16.54046475845843
C        11.52304817644916    5.33187030293924   14.86631485235066
C        11.56318896732255    6.65127220971909   15.59972166577979
H        11.07458417172811    7.41955846574823   14.99419655857170
C        10.70989990879128    3.89859189374435   11.40205493596054
H        10.52661325751137    4.89649924718693   10.99051927636301
C        10.80213195666857    6.58195882529678   16.92365889534992
H         9.76752443324986    6.30973091798720   16.73697813258494
H        10.81018327722953    7.55980162120555   17.39851934028403
H        11.24400258022560    5.86119162752756   17.60660957833553
C        13.01889202614879    7.06409561981593   15.83773362743451
H        13.52279445040835    6.33918138413272   16.47306372878760
H        13.05636948530309    8.03420484761262   16.32674228548925
H        13.56683656386084    7.13142947916480   14.89992752814516
C        11.79564501382448    3.23877277771375   10.55027528839940
H        12.73909413163793    3.77213201829200   10.65182537241708
H        11.50037422766077    3.25518069077810    9.50374843013652
H        11.95241862790693    2.20369992355779   10.84216498373806
C         9.39462462240885    3.12276332702745   11.32758419296697
H         9.04291183110138    3.07078121696628   10.30031005046203
H         8.63177549534980    3.63814162538518   11.92465595930055
H         9.50942023647089    2.11255308110993   11.71207966527801

