35
CSD_code = FUTRAN | q = 0 | S = 0 | Stoichiometry = C12H12N6NiO2S2 | MND = 4
Ni        7.56476179200328   11.22983198313168    5.25374037613271
S         8.89315197940691    9.43208540373085    5.30257054950585
O         4.81113038069692   11.42800438659244    0.80824595141049
N         7.19820144983110    9.22708350271311    3.26410527371159
N         6.86276185615356   10.48396712002805    3.61853555781990
N         8.46719084303451    7.37211868399727    3.71796627752571
C         8.10894972457012    8.64403391327046    3.98601670520582
C         6.09236541250268   11.11279913158037    2.77451530897753
C         5.60186606066905   10.59621946883297    1.53819118891228
C         5.74089951309469    9.39691620428634    0.86600909446829
C         4.99626477156847    9.51965340631591   -0.32138508140658
C         4.45579768483746   10.77370017252859   -0.29951683685199
H         8.14006120147020    6.93865708244669    2.87273591343508
H         9.27289440028977    6.99473487724244    4.18393915894798
H         5.77408800992537   12.12033741300743    3.00368625796681
H         6.30445338849064    8.55412867233178    1.20362811062945
H         4.87607003658299    8.78179566548042   -1.08802195446377
H         3.82375022403006   11.29041504963592   -0.99519873856230
S         6.23620488382553   13.02739902032744    5.20503706688173
N         8.26687772545602   11.97565958286978    6.88891128515039
C         7.02040110346790   13.81544409516271    6.52159450296897
N         7.93128188636795   13.23247776031090    7.24342040156038
C         9.03743677697395   11.34691172380788    7.73284949003671
N         6.66205305080066   15.08731466513185    6.78970407788820
C         9.52799898294402   11.86354653922708    8.96912623319615
H         9.35578650134743   10.33939810676838    7.50367104698090
H         6.98919855891339   15.52078499584461    7.63492076398282
H         5.85629460192667   15.46464509456947    6.32378241024032
O        10.31889460047629   11.03183893123937    9.69898442977745
C         9.38891299491462   13.06283102058877    9.64133343124228
C        10.67428188884957   11.68617193621604   10.80670946468821
C        10.13369950710669   12.94016851805572   10.82863863993371
H         8.82524257261999   13.90556791823425    9.30377744782636
H        11.30646669003294   11.16952077797261   11.50231368343866
H        10.25390894481888   13.67803717652004   11.59526251084200

