118
CSD_code = FUTSOD | q = 0 | S = 0 | Stoichiometry = C38H66BMoN6O3PS2 | MND = 6
Mo        5.81885037318493    7.48461632401885    2.82366978245529
S         5.47897936135511    5.12683778006934    1.72296570169557
P         7.43333006088766    5.01798770501923    2.18359024228805
O         5.83170967849471    6.76115430724449    4.28702852362617
B         4.61461379368054   10.33347984722617    1.85865081980985
S         8.29254058983480    6.84962899353868    2.37183886132503
O         7.78826024678159    4.08422965077897    3.42477347383677
O         8.09513759428873    4.14582883626819    1.03423210266957
N         5.85545666201679    8.39277114515481    0.77827356697594
N         5.28526448679003    9.61267710305084    0.68741520191964
C         5.34532611496995   10.06500746236595   -0.56774438006635
H         4.94025194139446   11.02093949258522   -0.83098698577263
C         5.97648368768485    9.11840926282159   -1.33756221175637
H         6.18331286157327    9.16452675951126   -2.38624270729022
C         6.28576201027747    8.07946242910677   -0.45375943140779
C         6.97488385850833    6.82015671230517   -0.87224459285141
H         7.22670736327659    6.22030204717940    0.00533842513381
C         6.03763322158917    5.99071964364118   -1.75289719004959
H         5.14287919466716    5.72148302115929   -1.19519695453537
H         6.53600509525594    5.07437183497597   -2.05979203923078
H         5.74736029668845    6.54817345658078   -2.64108168354403
C         8.27685802159586    7.15140918581040   -1.60307501605138
H         8.08687738130580    7.74985284374551   -2.49068601984315
H         8.77012745260124    6.23261031741495   -1.90988085952181
H         8.94803086660337    7.70129973675611   -0.94662795531746
N         6.26737109167688    9.42722631244481    3.47969351333293
N         5.65394853089547   10.50012585808395    2.96109273162505
C         6.06286008046748   11.61063971357518    3.59601233898202
H         5.70147580697977   12.57794581452804    3.31130404005071
C         6.95995894595155   11.23878174180190    4.56952507987074
H         7.47358909641319   11.87842040506464    5.25703430070241
C         7.06173708133677    9.84501548315481    4.46627706185411
C         7.89839909335323    8.92545617069370    5.29489180561703
H         7.61322949734178    7.89850710861596    5.04100834277250
C         9.37875641233880    9.13386018524558    4.96645636537559
H         9.56549205625767    8.89986053678579    3.92073117530055
H         9.99485132792486    8.48215014601461    5.58105558205416
H         9.67000294911671   10.16501839799434    5.15506443498838
C         7.63012197057208    9.15612390463257    6.78344752518175
H         7.89750546893821   10.17041057618009    7.07095733843056
H         8.21815004946515    8.46341839531933    7.38050574040021
H         6.57697763838388    8.99729072603866    7.00291570122379
N         3.81996530956609    8.15729361393419    2.77895544836019
N         3.52432605966475    9.40562211514968    2.38166208559007
C         2.21658300163632    9.64591517811662    2.56589611285270
H         1.78051893105231   10.58358505168269    2.28636667922105
C         1.64970661813418    8.52316272809925    3.12117117890214
H         0.62558428240943    8.38226234521705    3.39700509406965
C         2.69865299562922    7.60209314711397    3.24117470637571
C         2.66896103741694    6.24475512585410    3.85656824867738
H         3.51683880974818    5.68166402058816    3.45165347394380
C         2.85784998760053    6.39669191522186    5.37031717674394
H         3.83693814687634    6.83217182756734    5.56697306738863
H         2.79747284038023    5.42666378111301    5.85607231790965
H         2.09024723802570    7.04664044922750    5.78621296436296
C         1.37282968045409    5.50466890802996    3.53461221307520
H         0.51914169574649    6.00453345648980    3.98619432473533
H         1.42163646233015    4.49126431550079    3.92447361901556
H         1.22125545509989    5.45346028360637    2.45945023862690
C         7.57734751092389    4.35998236440395    4.81729540993990
H         6.80147358211820    5.12836128485027    4.91577306360633
C         7.13696837978082    3.06638673139650    5.51120692079986
H         7.96730296597426    2.35422739221263    5.42524407892409
C         6.92696207213632    3.38961927400183    6.99201396880137
H         6.14950119778452    4.14833188094070    7.08953800826936
H         6.60203891646073    2.49389186878824    7.52233832853380
C         8.21417010307627    3.91458662310255    7.62079937772612
H         8.04443321451664    4.13190010113276    8.67758449557792
H         8.99112319712753    3.14820785315120    7.55938918225824
C         8.69369654221291    5.17821032490834    6.90693963620850
H         7.92035797475090    5.94764128793924    7.00385961921147
C         8.87859233872356    4.87977976793090    5.42002463605621
H         9.18211558982525    5.78384869139700    4.88654589019422
H         9.66032708642179    4.12642782579527    5.28490572934957
C         5.91619013983974    2.41976107703663    4.82824584854232
H         6.14373377808988    2.37156352181206    3.75754978266417
C         4.63582371514522    3.23133041320518    4.99696982766083
H         3.85437216261927    2.82181867685150    4.36083640160976
H         4.79520758839805    4.26630264077935    4.70666804015609
H         4.28928506946422    3.20193094266183    6.02759972943716
C         5.70141694339130    0.98904311070470    5.32081409834922
H         5.38943725075891    0.97770037027029    6.36263990540269
H         6.61363320355821    0.40297332148656    5.22921908595403
H         4.92420699613131    0.50684171299045    4.73230586959917
C         9.98976635780188    5.69781429162039    7.52156229526203
H         9.84324502351461    5.94235490595882    8.57134872301505
H        10.32869948743775    6.59161345045877    7.00334923471528
H        10.77290285643286    4.94552544642204    7.45183651995395
C         9.43127977708343    3.62215320505697    1.09695019481835
H         9.76321241324304    3.61961828802915    2.13933665556472
C         9.42003835234487    2.19386167730192    0.54283849353535
H         9.04909632989055    2.26097958515794   -0.48665639633368
C        10.86111202870758    1.67875284354544    0.51013994982915
H        11.26132571114876    1.64994795810118    1.52471208986354
H        10.87644091576831    0.66479220431530    0.10885150493995
C        11.75058764379473    2.57886283049541   -0.34155145273667
H        11.38003043365186    2.59595171526454   -1.36905365058900
H        12.76668620445995    2.17887043525552   -0.36006593324092
C        11.76604427387524    4.00249958169792    0.21338318069524
H        12.16950514048008    3.97652512176397    1.23187621236476
C        10.33457596140127    4.53108237615335    0.27131468507672
H        10.31225368310519    5.53454560683062    0.70235136121435
H         9.92595690394047    4.58848648817101   -0.73983620368805
C         8.44748740275063    1.27909283283742    1.31480901874974
H         7.52156289783960    1.84934380768966    1.44721551793216
C         8.95390846726343    0.87749730149521    2.69793212043869
H         8.17033224400214    0.34070067598427    3.22801007217155
H         9.21722068800490    1.75341760887707    3.28436587739272
H         9.82050140389815    0.22436277844368    2.62505892574753
C         8.11010223928809    0.02982301238717    0.50235975055596
H         8.99102388181725   -0.59179931140802    0.35784278831649
H         7.71238435320041    0.29897305027878   -0.47337090851523
H         7.36121100911335   -0.56225063715603    1.02328453366888
C        12.64053502582743    4.92015306863037   -0.63570327739952
H        12.26684903654356    4.96331505892190   -1.65653176694730
H        13.66492029779510    4.55570918319947   -0.66089458124131
H        12.64256153760242    5.92826285165852   -0.22862538879644
H         4.17284463328261   11.37675600979991    1.51992221672356

