66
CSD_code = FUTSUJ | q = 0 | S = 0 | Stoichiometry = C19H36BMoN4O2PS2 | MND = 6
Mo        1.07912349741061    5.29168599361751   12.96160845832866
S         3.09710766835213    5.75505683650160   11.40696688262316
P         3.97280522561659    5.71663052481153   13.22026814370432
O         1.01137661263357    6.79430629396528   13.58438483521109
C         4.12589920172970    7.42748064043366   14.00778751312464
H         5.20520460123143    7.56839959194815   14.15598543803971
B        -0.28757602890925    3.00713835684026   11.86615300917094
H        -0.50189817699407    1.95097939543680   11.37512346156566
S         3.03187573781784    4.40886554926278   14.43151491618753
O         1.14625907387856    3.34551733594866   12.11617437316858
C         3.58770595754764    8.49289982663787   13.06363651610977
H         2.51977968215935    8.32947162047985   12.90429846674810
H         4.09246707397892    8.45775570476404   12.09929901842640
H         3.72890157523513    9.48079915739288   13.49837830476320
C         3.42907168236915    7.46651211070298   15.36010131027182
H         3.57869765693917    8.44014957771987   15.82341867222263
H         3.81973678290152    6.69799363840831   16.02573581877059
H         2.35739846254616    7.30512209627776   15.22460784704454
C         5.76397503116552    5.20946033333469   13.01778640906061
H         6.22660516034481    5.32508144046525   14.00581773597896
C         5.82443686055905    3.75034460394777   12.59235553380214
H         5.35600069423762    3.63019660132765   11.61512779848832
H         5.30845717498419    3.12063049889090   13.31699991799776
H         6.85835754665956    3.41737094936293   12.52083454114106
C         6.43845731848456    6.11218896612140   11.99491604759734
H         7.46669194521407    5.79199346488883   11.83495630910493
H         6.45088459863063    7.15117281382711   12.31905595841269
H         5.90563176825185    6.05375027778354   11.04633578416672
C         2.13865921969310    2.55891460519154   11.50571758197616
H         1.88410585379832    1.49641833549299   11.57785211491969
H         3.08951255140944    2.72692699531364   12.02211013349096
H         2.25492510415837    2.82564080320850   10.44626021858419
N        -0.40700841697813    4.23867765723015   13.93574407877191
N        -0.90694981715180    3.19932704239929   13.25612880060709
C        -1.89776785819880    2.63220793173455   13.96585418594855
H        -2.41927760159540    1.76957954407286   13.60285200877183
C        -2.03888902183967    3.33995442892641   15.13915683942025
H        -2.73432813188407    3.14760604034669   15.92954138320318
C        -1.06934370183836    4.35182165753142   15.08294600967943
C        -0.74666506765578    5.46102823529025   16.02838230945916
H         0.32952841527514    5.66247097227030   15.92629854072544
C        -1.50513381114478    6.72169919101671   15.59725686949622
H        -1.19110893482772    7.00468399749367   14.59202073926629
H        -1.28599459804559    7.54226104961927   16.27578460170567
H        -2.57825062355771    6.54014632257392   15.60010431185412
C        -1.06771287675782    5.08748850202228   17.47270078623906
H        -2.13868754168636    4.94853054623912   17.60107425011287
H        -0.74228560284934    5.87846418061217   18.14376580427360
H        -0.56023545041171    4.16708300894471   17.75080858085763
N        -0.33708148029692    5.38541397880442   11.45150874817476
N        -0.80696821685899    4.19934158593036   11.04445662512306
C        -1.72470494608562    4.38617086658719   10.07927615079755
H        -2.21473386972148    3.55729290726151    9.60958046323889
C        -1.84273941981361    5.74095785219227    9.86276396779434
H        -2.48239414680835    6.22911867145378    9.15697133595761
C        -0.94417684269128    6.34285324740619   10.75622947931739
C        -0.60746862882881    7.78187858002053   10.97699399957397
H        -0.17814934562478    7.85740792200527   11.98526735678287
C        -1.84985970220131    8.66624483218577   10.88728997047109
H        -2.26269952632844    8.64525005098996    9.88128146371256
H        -1.59369166460000    9.69445180432456   11.13077351401953
H        -2.61229230652367    8.32563434338022   11.58393347475607
C         0.45437590998183    8.22223008842743    9.96339627460541
H         1.34454803511299    7.60409414521277   10.06362142016222
H         0.73031468314923    9.25961432753850   10.13585313793207
H         0.07349499520342    8.12555954741302    8.94861344697955

