110
CSD_code = FUTWUM | q = 0 | S = 0 | Stoichiometry = C53H52MoP4 | MND = 9
Mo        1.06150562952346    3.05598317307033    4.86626993462568
P        -1.11465178470806    3.83061847999151    4.53765844778424
P        -0.11733511767087    1.47709087510293    6.11121686832101
P         0.85684084600048    1.73094514974579    2.89927749334362
P         2.32362694594759    6.25679512043790    3.16205646727715
C        -2.39625534676702    2.94517242794169    5.54149245273988
C        -1.97242299833770    1.52353985413413    5.88530888575764
C        -2.76704893021862    0.97779178242646    7.07122557726870
C        -0.35396407611123    0.36598130659011    2.76637008240110
C         1.42398932169042    7.61575547581291    4.04074347660352
C        -1.76900872790479    3.80740565889532    2.84595120437686
C        -2.71768335022402    2.91690347470346    2.35945936311148
C        -3.12154480700077    2.98458302612078    1.03616118256315
C        -2.59993555365793    3.95079008822813    0.19447850428747
C        -1.64857017683593    4.83969179086692    0.67000320573277
C        -1.22135738421367    4.75155792491574    1.97878431907749
C        -1.63377264189525    5.52536127015873    5.01845372566334
C        -2.47657240626835    6.33736431297381    4.26475455400175
C        -2.83805856976351    7.59303409540053    4.72247054932767
C        -2.37930773287112    8.05765032698258    5.94293653416323
C        -1.56563862397083    7.24724350279469    6.71687354117231
C        -1.20406673619049    5.99567997537269    6.25593933131035
C         0.02364448551017    1.69252534343714    7.92243019187820
C        -0.41013117069955    2.91629867312182    8.42373879769118
C        -0.33590507884515    3.21146330823125    9.77045937651665
C         0.19101031403532    2.27922872742566   10.64975737135457
C         0.62515636573304    1.05762658677135   10.16654338866182
C         0.53794684553090    0.75973122161155    8.81659025945410
C         0.27427022990299   -0.30269028955274    6.04549583753308
C        -0.60916614565358   -1.36165692606355    5.85818495316834
C        -0.14549462818983   -2.66728064544117    5.86983582056074
C         1.19551127256915   -2.93793065458726    6.08105075219258
C         2.08619095187649   -1.89104253819976    6.25780049928391
C         1.62662090002424   -0.58849282886182    6.22531153036338
C         2.40083746884547    0.80821720664830    2.58845295001534
C         2.57555814865490   -0.43978520417990    3.17740535966348
C         3.76764134262707   -1.12647924924661    3.04211299080581
C         4.80749489675633   -0.57910282083383    2.30976892204293
C         4.63696755521281    0.65298401511788    1.70133797551208
C         3.44398430136869    1.34004952567286    1.83607097416242
C         0.69815531611909    2.46648457809341    1.23413174064935
C         1.35474561267117    3.67021106674928    1.01182292285847
C         1.41011898118839    4.24028510936663   -0.24464234921817
C         0.78860032805161    3.61238427613840   -1.31021846935664
C         0.11171670492553    2.42386061518003   -1.09909377449542
C         0.07066116593429    1.84737827155891    0.15854464210152
C         2.39547458260059    4.94254078651803    4.42916459817082
C         3.11901584397082    3.78189083228366    4.10629281670617
C         3.36312227635569    2.77508743590101    5.06531471024988
C         2.83182369916525    2.91425153228538    6.34998277186395
C         2.10127798391403    4.07098482693570    6.69577441768929
C         1.85133991113450    5.05058953251341    5.73233503774381
C         4.01829356382328    6.94457520005567    3.38728282965353
C         4.51692526186866    7.74013906549784    2.36164146195210
C         5.77048612200481    8.31353022879767    2.46368665959644
C         6.54313734972273    8.08697839575082    3.59073042388332
C         6.05721120325288    7.28656597287251    4.61123558556333
C         4.80116914624825    6.71587672683107    4.51253539639967
H        -3.35982944980278    2.97348563150075    5.02047408916322
H        -2.51501570901950    3.52753358051607    6.46109031454970
H        -2.13609003299103    0.89364628001088    4.99872394512808
H        -2.34334104503014    0.04419723516859    7.43716449222401
H        -2.75850511550835    1.68856174152741    7.89537619782736
H        -3.80376525001358    0.80213004229047    6.78424810927741
H        -0.04765140715619   -0.35766947571117    2.01025561767772
H        -0.42455226885834   -0.12649380446306    3.73369235085167
H        -1.32041781942477    0.80126594463216    2.51165003451955
H         1.42023103066127    8.47910013304464    3.37476950475346
H         0.39293507757942    7.31109466013143    4.22008732771213
H         1.91101536291231    7.89353991295069    4.97604389907968
H        -3.15712001462312    2.17378415454646    3.01166409623531
H        -3.85779579331126    2.28548691552074    0.66398894029121
H        -2.93194149707021    4.01078345089055   -0.83162036008748
H        -1.23755328852986    5.59387836545978    0.01530680715004
H        -0.46264546703972    5.42631558671261    2.35987187945044
H        -2.85570815900152    5.99439995935817    3.31399624922060
H        -3.48746172532336    8.21189519608204    4.11977694617633
H        -2.66008330455067    9.04030316371181    6.29282379226401
H        -1.21303652275852    7.59231359448561    7.67908554491860
H        -0.57039894080354    5.36550464477461    6.86185003496398
H        -0.80889044876888    3.63807438759236    7.72746433066248
H        -0.68529087919578    4.16737591425128   10.13622223304483
H         0.26013986200700    2.50353851609515   11.70427168457881
H         1.03329891700756    0.32356967401970   10.84700484647807
H         0.87367389572751   -0.20693678848776    8.47170362514196
H        -1.66155846111316   -1.18483689257402    5.69170077329838
H        -0.84144482429349   -3.48016704667094    5.71806674715465
H         1.54556870283744   -3.95962193778497    6.10065445565787
H         3.13702198185492   -2.09064157931613    6.41170565246810
H         2.31559437735542    0.23821904638007    6.32708295253413
H         1.77188292813925   -0.87696968858677    3.74759630102661
H         3.88247988549627   -2.09467573021119    3.50914676032689
H         5.74154789247555   -1.11227197503138    2.20567757406950
H         5.43750517979259    1.08105534059329    1.11410146459145
H         3.31828315647938    2.28803151937457    1.33237868214285
H         1.80863217767819    4.17171990103765    1.85381800995474
H         1.93401619175144    5.17484420304652   -0.38772925762917
H         0.82518244803927    4.04811063411836   -2.29842498114378
H        -0.38466591989773    1.93334357690748   -1.92481017725668
H        -0.45904303156440    0.91641988946218    0.28283535164169
H         3.62143314928248    3.72019377800609    3.14488416463923
H         4.00489068122364    1.93719887072991    4.81447440432110
H         3.07001954633473    2.19560451821709    7.12822130641326
H         1.78995764306549    4.21878472877692    7.72463683389087
H         1.35188507638963    5.96594012357775    6.02077455320796
H         3.90896255330521    7.90512860670025    1.48181331625842
H         6.14874895789994    8.93345000833474    1.66345092893508
H         7.52479848748936    8.53050612817776    3.67272691984651
H         6.66006287477322    7.10653573997974    5.49045945928993
H         4.43215745134822    6.09090262307475    5.31621619732877

