84
CSD_code = FUTWAT | q = 1 | S = 0 | Stoichiometry = C24H54ClFeP4(1+) | MND = 5
Fe        1.38791899115453    7.05728713783417    7.54389743971503
Cl       -0.21307409025484    7.69894187725607    6.45945512788933
P         1.11916465951618    4.87357092954074    6.86062526531214
P         3.23917146859232    6.38850494452878    8.40576402354082
P         2.64923417630146    8.80128774401474    6.74544177453974
P         0.81353087991283    7.35605042708532    9.65335844666879
C         1.34844104766983    3.31466435816912    4.45022944555271
H         0.78983709232180    2.49510584213007    4.89548226702466
H         2.40971096094924    3.13043220413417    4.58904741224768
H         1.15108246297210    3.29962740394927    3.37971013246254
C         0.89697602973381    4.66784021530811    5.00185123775475
H         1.55842534230153    5.44389565635302    4.58795933569530
C        -0.52380390044790    4.95445055784923    4.51815098162685
H        -0.50719870110114    5.16482236116009    3.44986911273490
H        -0.96156897302892    5.81299413276175    5.02141066629818
H        -1.16273735635829    4.08867329713566    4.67160830107949
C         0.48882316077888    3.11556757705654    8.95132418191371
H         0.59646067309158    3.97984374702284    9.60560298732707
H         1.43793058781631    2.58745152149422    8.90156090692230
H        -0.23937274233357    2.44170421620303    9.39888310457956
C         0.00625600819779    3.55343896315824    7.57191720266301
H         0.04623733876411    2.69331392346483    6.89384568236089
C        -1.42415103891782    4.08002822430866    7.65653928818450
H        -2.04463795172486    3.38943710333014    8.22453505051253
H        -1.87081881103680    4.19943456558248    6.67548409496435
H        -1.43814375138364    5.04743691549437    8.15070993776260
C         2.81001619460627    4.09345722006030    7.00992903294687
H         2.72600980576061    3.00482296039964    6.99341910669904
H         3.37008261431348    4.40627195049588    6.12328613347378
C         3.54630283533168    4.58281296184706    8.24928168690006
H         4.62203124054304    4.38768524522468    8.19007463015064
H         3.15762180573277    4.10667223213205    9.15339040449515
C         4.74973176959383    7.22728481868232    7.78231607199104
H         5.53498541678391    7.17935360993540    8.54419567868091
H         5.09909555684302    6.68370417620874    6.90215893947693
C         4.37472137291813    8.66781955162572    7.44330489285996
H         5.09309149080114    9.10759939433781    6.74781706114294
H         4.37655238318337    9.27135183291939    8.35735872133860
C         3.83868034766221    7.37780979962286    4.62626678098587
H         3.43076117607511    6.52116853561797    5.16786648937227
H         4.88113457713093    7.51135006818801    4.90380097016741
H         3.81034618923373    7.15158859698546    3.56165667095849
C         3.00687453917707    8.62792352576047    4.90986624359242
H         3.59628275349270    9.51502678475489    4.64854929621699
C         1.74395560560997    8.60388400390780    4.05437845404523
H         2.01570155126315    8.69733799503565    3.00399144236206
H         1.06442217533006    9.41347481863553    4.30146615540510
H         1.20679295941230    7.66606166970364    4.18118850108468
C         1.03821769469964   11.09959151547967    6.36586900554437
H         0.71821045680551   12.02226358697388    6.84567874557958
H         0.26081512439886   10.35289715658323    6.51197777976866
H         1.13271934088474   11.30129921564684    5.30173119518711
C         2.37572360373486   10.64501789717896    6.95032529263066
H         2.32642989809265   10.76213341671814    8.04142465338636
C         3.50099512853858   11.54462526447509    6.44186507290888
H         3.59836503884418   11.49766477332559    5.36029315567658
H         4.46023372106632   11.30804614441317    6.89443559693240
H         3.25868788098426   12.57404792954048    6.70007320606018
C         3.37552098353122    6.65341304234020   10.22612878499879
H         4.10324553990260    5.95955006805537   10.65866757144589
H         3.72990354291439    7.67587659237467   10.39133850419198
C         1.97579239873291    6.47367888956811   10.79654075083371
H         1.89939371412622    6.84612677997232   11.81856139938311
H         1.69981143166615    5.41490410811913   10.79789939291263
C        -1.10201283204190    7.04699953502663   11.77724904047124
H        -1.27326222752687    8.10280715818241   11.96684667374243
H        -0.28692322303200    6.69590364511538   12.40470645874881
H        -2.00327803058406    6.51195775427513   12.07225409678827
C        -0.84774928690007    6.78566620765468   10.29501981491183
H        -0.76887051776145    5.69759765338340   10.15217870653634
C        -2.01642367451244    7.29407190077018    9.45407901060182
H        -2.87785186716803    6.64281470457558    9.58830290714638
H        -1.76669692814993    7.31750768826573    8.39526801580067
H        -2.31088503298818    8.29501404975880    9.75356443870127
C        -0.05450800261011    9.99133304160627    9.61725450798795
H        -0.89844741663206    9.93981558762893   10.29915340073062
H        -0.37462256026718    9.64475228182258    8.63575048695711
H         0.24155998805415   11.03508425587001    9.53611844784619
C         1.10449170359426    9.14229297775405   10.13154362435156
H         1.99974165543303    9.38580572709118    9.53694620633424
C         1.41500802215210    9.45507752046483   11.59289356474659
H         1.49448981867125   10.53584281781084   11.70194679309250
H         2.36096401529618    9.02491881965813   11.91297450687613
H         0.63142297376349    9.11313269411181   12.26081241849986

