85
CSD_code = FUTWOH | q = 0 | S = 0 | Stoichiometry = C24H54N2P4Ru | MND = 5
Ru        5.75702827876473    3.32365947690972    3.28524870458007
P         4.56849077023092    1.34629069118829    3.02678545803391
P         5.75685141893959    3.32371783251106    1.07908500482845
C         5.11664531697179   -0.29119022613563    3.77765624331089
H         6.16503284808691   -0.34953075442696    3.45125098876646
C         4.70687035885204    2.02660103706657    0.28580371822065
H         3.71760914881851    2.46869680277169    0.13284642690050
H         5.11458293207159    1.74697611533805   -0.69341502634122
C         4.62788085262899    0.83180830869051    1.22942878732145
H         5.53713654338048    0.22881847387330    1.12619255944780
H         3.76866760082464    0.19736242337360    0.99314471713184
N         5.75695447932227    3.32361686911020    5.06158459203620
C         5.11022294601268   -0.22228969128010    5.30422770077478
H         4.12263878132474   -0.45493406363543    5.69661646150427
H         5.39411787440525    0.77113227228170    5.65250642385397
H         5.81165638632533   -0.94445612358623    5.72063299926886
N         5.75667314016033    3.32347617915761    6.18838136193201
C         2.71449711972487    1.29508094202372    3.35130733240530
H         2.37100189899070    0.25614401819444    3.31684217955179
C         1.98170108704294    2.10918371834530    2.29125397991923
H         0.96992996219651    2.34445184571760    2.62035870837736
H         1.91042775684594    1.57440341039076    1.34625790796435
H         2.51864121980937    3.04677441725738    2.12863390960921
C         4.40792574164916   -1.55837973804815    3.30630946139342
H         4.90751557727238   -2.42280284115479    3.74324577021658
H         4.43668895750028   -1.66658994010853    2.22508676465637
H         3.37061260471155   -1.58032817428055    3.63221469193309
C         2.45853660434337    1.89064171724079    4.73084646628681
H         2.96172489945383    2.85645894961507    4.80266316101942
H         2.84185542452643    1.25409638351681    5.52284382272926
H         1.39206441938755    2.03935212248840    4.89809596816596
P         8.06356977326536    3.28339673955844    3.02686498388030
P         4.63858685060215    5.34143470604328    3.02690971413292
C         9.20764859198234    4.57680489758189    3.77768001843643
C         2.94639389586349    5.68558010687601    3.77766833163785
H         8.73395244548927    5.51388041229286    3.45125658666232
H         2.37168765452511    4.80681968712643    3.45125317282419
C         7.40515955767004    3.06291123824652    0.28577519324542
C         5.15856611951040    4.88161319501708    0.28580770531415
H         7.51691477522098    1.98513569790295    0.13282077023655
H         6.03607268753473    5.51727519257672    0.13283490575999
H         7.44347540265371    3.55581313572869   -0.69344714408112
H         4.71253031467414    4.66834312963849   -0.69340778118956
C         8.47936305217369    3.59184262773167    1.22944514431818
C         4.16341392530069    5.54739382378612    1.22953012994390
H         8.54696863733554    4.68076687001436    1.12619256154152
H         3.18656696291345    5.06149430984125    1.12626209268262
H         9.45840552985020    3.16494909586306    0.99313991489207
H         4.04357488313193    6.60871317767455    0.99321327814889
C         9.15115664113069    4.53672336267684    5.30423727921586
C         3.00928507837781    5.65669336832332    5.30423106133161
H         9.84639616108299    3.79773278398103    5.69661068638365
H         3.30164532249149    6.62827482027208    5.69662416690623
H         8.14885407691337    4.28588696043205    5.65246548586787
H         3.72763424338224    4.91407865605906    5.65248717487051
H         9.42586437492415    5.50525748166240    5.72065220891620
H         2.03313871492832    5.41035317202576    5.72062197663780
C         9.03488258259130    1.70333731976581    3.35129180464090
C         5.52116770160574    6.97273115863460    3.35129543538304
H        10.10638387405080    1.92530252426474    3.31684372302441
H         4.79319203377216    7.78970551728675    3.31685016486790
C         8.69629118534372    0.66157890888315    2.29130000079835
C         6.59264041418886    7.20036580107541    2.29128770296287
H         8.99845161136507   -0.33227754507715    2.62040003184053
H         7.30227950833659    7.95895379269204    2.62039128682454
H         9.19505560255072    0.86725652702395    1.34630566741088
H         6.16515136075140    7.52949094775779    1.34629372254295
H         7.61584353118026    0.65775135606613    2.12866612521992
H         7.13615738098601    6.26657205605240    2.12865137099079
C        10.65940121554064    4.59656765119510    3.30626460155345
C         2.20332873689281    6.93294310938805    3.30631013748671
H        11.15823462559544    5.46142770680600    3.74319772073551
H         1.20492886070514    6.93252179251081    3.74326171939454
H        10.73869990229247    4.67559790564488    2.22503897274436
H         2.09520192201758    6.96212752909548    2.22509023039451
H        11.19707182650760    3.70918877490997    3.63213056324516
H         2.70297947417728    7.84226786698080    3.63218349708427
C         8.64710190084229    1.18382155603969    4.73080993896582
C         6.16495574176546    6.89664557871074    4.73081931941406
H         7.55909343920171    1.13658175527194    4.80262601485868
H         6.74983711271411    5.97799785434048    4.80263544985866
H         9.00663383131899    1.83408562600880    5.52281457211293
H         5.42205300714238    6.88291895662379    5.52283320859853
H         9.05163802416514    0.18590741439048    4.89807130999420
H         6.82693496889326    7.74591945432407    4.89806884273799

