27
CSD_code = FUTWEW | q = 1 | S = 0 | Stoichiometry = C4H16Cl2N4Rh(1+) | MND = 6
Rh        0.00012777486932    0.00001468455338   -0.00008329278792
Cl        1.88244137869329    0.56888317673462   -1.24627895072665
N         0.42743218777890    1.43971020026972    1.42085857924520
N         1.22193008072537   -1.16186269338386    1.19640534176502
C         1.58392305794127    0.99219942285793    2.21701135974095
C         1.38609277822709   -0.49213071907507    2.49876586971568
H        -0.39824464210462    1.49144892855788    2.02726209846737
H         0.61162424791158    2.37514975378866    1.05378015713931
H         2.12985772860480   -1.19782082159010    0.72040236116740
H         0.90269081556389   -2.12047481870008    1.34744326624994
H         1.67468008579249    1.55896860111199    3.14820891641691
H         2.48858848669609    1.13793609323740    1.61979319645101
H         0.47024301421815   -0.63973642638254    3.07819696674268
H         2.23319235398528   -0.90101205607608    3.05729471291123
Cl       -1.88231378972940   -0.56871715853662    1.24615985961424
N        -0.42745217055742   -1.43973304041499   -1.42085370934836
N        -1.22194123336623    1.16184505349809   -1.19638064614915
C        -1.58394087574437   -0.99220785141335   -2.21700151139732
H         0.39821192092143   -1.49150275882284   -2.02726236248686
H        -0.61165855603843   -2.37515560476565   -1.05375212356475
C        -1.38610441299861    0.49212313023137   -2.49874868004050
H        -2.12986675626496    1.19777914612271   -0.72036795268529
H        -0.90272990735798    2.12046964755701   -1.34742105422354
H        -1.67471034304198   -1.55897992694097   -3.14819791049213
H        -2.48860609443054   -1.13793312227880   -1.61977796408282
H        -0.47025950803258    0.63973556654053   -3.07818379267970
H        -2.23320762226183    0.90100359331963   -3.05727273496198

