73
CSD_code = FUTZAV | q = 0 | S = 0 | Stoichiometry = C37H35Rh | MND = 7
Rh        0.70060854646266    4.92217413640335   -0.22637699740899
C        -1.70622063343541    5.17112862965590    2.96847072509628
C        -0.70488486273312    6.15308507896346    0.81060443126742
C        -0.59286346474945    5.08822117723762    1.92358336772448
C        -0.96952322678362    4.11898199040413    0.76296960310945
C        -1.44158838362415    5.23774301932833   -0.01018828672530
C         2.30988399077717    6.22925948412496   -0.86977515213476
C         1.42754805623256    6.06053227234699   -1.92684355949497
C         1.72115834914096    5.18005939867987   -3.12388789345523
C         1.21850859408751    3.73083238452994   -2.95951820633373
C         1.16586593904136    3.26519474681433   -1.52176694560543
C         2.20520358652663    3.44171089011978   -0.61567863973389
C         3.55613523956912    4.01180639970016   -0.99392664367622
C         3.64560120611383    5.53106412991652   -0.75692519568922
C        -0.68903758062910    7.60391962640111    0.89709558722748
C        -0.43040291605941    8.25201474678240    2.10908471102503
C        -0.41002398252786    9.63148759978871    2.18318769106728
C        -0.64222158414069   10.39882338827194    1.05425887603431
C        -0.89503958679132    9.77073996239380   -0.15561588361054
C        -0.91753041398900    8.39385994973686   -0.23594980612711
C         0.75904071729893    4.81964549193283    2.54653227604209
C         0.95890767804849    3.65133644085879    3.28153818260055
C         2.19333171824037    3.36248486772369    3.83235181521870
C         3.25141102631326    4.24222849095243    3.67462998758416
C         3.05780306924095    5.42149892379624    2.97822738451663
C         1.82386069732220    5.71271680916204    2.41763188266259
C        -1.53005549724931    2.76946684847683    0.88239683611675
C        -2.90069408395310    2.56946493936198    0.71052326867510
C        -3.44849586018989    1.30664984173471    0.83127169642162
C        -2.64309833059964    0.22029271066861    1.13034328446729
C        -1.28167923275810    0.40611886869135    1.30428960334612
C        -0.72944226290155    1.66671605379045    1.17933085684092
C        -2.41161657599387    5.34412793989734   -1.09117050060347
C        -3.33656960573457    6.38866272108738   -1.11197170748313
C        -4.29143594697426    6.45643490106684   -2.10905020199398
C        -4.34229834001516    5.48600873327541   -3.09602439451584
C        -3.43989227805695    4.43415635511163   -3.07241946800898
C        -2.48708598549757    4.35807726128026   -2.07624434137480
H        -1.45749855090580    5.89145267684723    3.74558836149167
H        -1.85956940977205    4.20106658469701    3.43836325368414
H        -2.63946695195257    5.47445563880916    2.49746166321506
H         2.26139800507551    7.17455563037660   -0.32835155577493
H         0.71368451868936    6.86016241184825   -2.11883516990027
H         0.46645195873035    2.44676774131960   -1.34843823842672
H         2.22826709567600    2.78631094329444    0.25708983396629
H         2.79699151005495    5.18731015188905   -3.30579429712401
H         1.24314746610336    5.61348601693274   -4.00471357420916
H         1.85634628972497    3.05091725032599   -3.53584818633505
H         0.21255119254434    3.65897098188257   -3.37857932691288
H         3.76028936298232    3.77692528673570   -2.03967881512213
H         4.32601235156935    3.51867746874996   -0.39670703438413
H         4.03671951503352    5.70854861921325    0.24671287410065
H         4.35176400806848    5.97966731400394   -1.46540643905168
H        -0.24532945988923    7.66943974038375    2.99878524561055
H        -0.21029532545483   10.11167098262854    3.13065802273300
H        -0.62393910323319   11.47688471842544    1.11486516916673
H        -1.07352925073777   10.36120290309246   -1.04301296304577
H        -1.10802703078664    7.91401422070218   -1.18484512517441
H         0.13893972248240    2.96240447003890    3.42115447001347
H         2.32962566625091    2.44756431495033    4.39123297984515
H         4.21619512931185    4.01481975990389    4.10404897800337
H         3.86971817609435    6.12819827998001    2.87784783033175
H         1.67939069112506    6.66524092371005    1.92715129863749
H        -3.53623729470190    3.41327035894277    0.48377291420342
H        -4.51166000475855    1.16974376373664    0.69455694506987
H        -3.07342425635525   -0.76585529282688    1.22517461862546
H        -0.64599851209369   -0.43737487293825    1.53346188784332
H         0.33572477410973    1.80320221386435    1.29912752068336
H        -3.31170481251597    7.13849742965091   -0.33434893828824
H        -5.00228003609988    7.27024238529668   -2.11400875195657
H        -5.08681894860970    5.54507020897129   -3.87629237350667
H        -3.48355949224637    3.66875300488876   -3.83400156550554
H        -1.78844677254017    3.53480855920807   -2.04717975557348

