52
CSD_code = FUVCOO | q = 0 | S = 0 | Stoichiometry = C16H26CoN5O4 | MND = 6
Co        3.05708518542245    1.66543927518565    2.20434535783664
O         2.82651256842863    3.06522700352127   -0.30545445160686
O         2.56473211797377   -1.06312617091039    2.69389112677229
O         3.25762741927300    0.26557897545697    4.72870924250626
O         3.81590953860322    4.30198440709376    1.64330713778554
N         2.66431783133425    1.90876183950584    0.38704953494904
N         2.50551659065146   -0.10196809909619    1.83478541898434
N         3.43073411571064    1.41892004333070    4.03084423976155
N         3.68081027663233    3.39831397861059    2.55391022112672
N         5.14351518960594    1.03098069302618    1.70253237808182
C         1.80205889956151    0.85383962491200   -1.66194689279340
C         2.19959201451643    0.86740815626471   -0.22323876565559
C         2.11969127286948   -0.30475623688752    0.60622655977372
C         1.66060920017144   -1.63430113503358    0.09756909713437
C         4.31324909213421    2.47319918535158    6.07019353300567
C         3.91679978867771    2.45268176536580    4.63259738628610
C         4.07411743483566    3.59846265610483    3.77812689059970
C         4.67151855363061    4.88520048247410    4.24935246993529
C         1.17031181097451    2.16381075284456    2.64572737983823
C         0.70721214297948    3.54622916346432    2.22500700038846
C         6.17275866939947    1.55363527823795    2.52591096330828
C         6.54421830545266    0.88391992666499    3.68630198608431
C         7.50112542695583    1.42861395865742    4.52247033156732
C         8.09786003110564    2.63796638591882    4.20701997746064
C         7.73377984585865    3.30167948659782    3.04688736506985
C         6.77813675716099    2.76356578820945    2.20549455825053
H         1.96738232592724    1.83668991681513   -2.09526600582215
H         2.38158122953634    0.11339001790955   -2.21104384776629
H         0.74900504449460    0.59364924193375   -1.75394707132896
H         1.67500038890233   -2.34209456198034    0.92374519919003
H         0.64827549629412   -1.56615841274645   -0.29728920845503
H         2.31365319376694   -1.99804142964793   -0.69517548840419
H         4.10421146107233    1.50671485928659    6.52055871199393
H         5.37644265087350    2.69145016483935    6.15817399876206
H         3.76085735869237    3.24640681552700    6.60091099752863
H         4.67353831969683    5.58933634201228    3.42027497054869
H         4.09305843641486    5.30137436685997    5.07261394672354
H         5.69515329289350    4.73056334142374    4.58820672469873
H         0.52621218255777    1.42081998702914    2.16831181164208
H         1.05048567718348    2.06338192668917    3.72716809236648
H        -0.34530577671224    3.66160788258103    2.49485869765378
H         1.26320109831288    4.33422332255274    2.72603158508531
H         0.78737554809741    3.69497352183663    1.15127329214251
H         5.27086165515058    1.31329845827768    0.73375710055285
H         5.10325170693861    0.01658488388990    1.76951583536663
H         6.07049500191656   -0.05347688691112    3.93935038429507
H         7.78110785380480    0.90424737988748    5.42394914382314
H         8.84398872171587    3.06160245926991    4.86241384578316
H         8.19482940371587    4.24469662756244    2.79428306173452
H         6.48111958595287    3.29172037733365    1.31133169263170
H         3.22243807294946    3.72577372323245    0.40836360821333
H         2.92807998993269   -0.41080151033586    4.01310887458878

