51
CSD_code = FUVDEF | q = 0 | S = 0 | Stoichiometry = C14H28B8Ru | MND = 11
Ru        3.01273709334520   -1.14861068291639    7.67424794834913
C         2.93234890441966   -0.09881766526094    9.53446000273639
C         1.71877850631842   -0.35242240757089   10.40758034975733
C         3.17549984783806    1.28649293830953    9.04563575305794
C         2.14145165218353    2.35578282036430    9.32428218529596
C         2.46441128873852   -3.40338756697592    7.82313328121104
C         3.07621828450526   -3.03746340774637    6.59279779674725
C         2.47143044410393   -2.07842236002142    5.73932194057089
C         1.32465770971357   -1.36372968013188    6.15325798170092
C         0.79549772090312   -1.64205333013182    7.43276536993252
C         1.34170326571977   -2.67943871122501    8.23332752138699
C         2.99042843288012   -4.56313352238363    8.61667890618159
C         0.57071044959756   -0.44211221950958    5.22177314714622
C        -0.42732567977808   -1.28145750457637    4.41331025699558
C         1.47844951973221    0.35567596964578    4.28666352754011
B         4.60551075190915   -0.15511717438174    6.75083158351945
B         3.75177988938125    1.13341382963719    7.46395254417385
B         5.30724799811016   -0.96533312992536    8.10281619232656
B         4.30085844801967   -0.97630383563082    9.58881116768048
B         4.27376477854744    0.70772396661004   10.25919582754127
B         5.65823620311842    0.76020738001897    7.73622609331572
B         4.79369133313508    1.70307983891943    8.91027891731129
B         5.67889787427721    0.19184082202187    9.40881619749331
H         1.70550584848122   -1.38217386029575   10.76284316049291
H         0.78628114637404   -0.15585018021557    9.87468236241904
H         1.72935569289951    0.29398992152309   11.28673576763259
H         2.46029522375986    3.30986773802360    8.91025284082823
H         1.98090575675308    2.48921320755276   10.39406187906232
H         1.18386780201292    2.09877028491679    8.86811072582868
H         3.91339410663372   -3.62152687559699    6.22501467526721
H         2.86000830450765   -1.94799868184036    4.73740474572064
H        -0.12938065645349   -1.16399199772407    7.74174619248457
H         0.83012309277076   -2.96247252227206    9.14785388137286
H         2.59371088273047   -4.55764372747571    9.62990330028449
H         4.07732640317726   -4.53095952178829    8.66816908231230
H         2.70113082801775   -5.50245051049632    8.14073178004350
H         0.00259810486957    0.26985918016948    5.83362115992529
H        -1.11382965411729   -1.80942692524001    5.07262129248552
H         0.10133883386037   -2.01635618615793    3.80932588675509
H        -1.00692851230034   -0.64265596819120    3.75080697673892
H         2.27433396549646    0.83695696503561    4.84989263357283
H         0.89760947668124    1.11964036121272    3.77461610486089
H         1.92437510316375   -0.28672209031301    3.53141965195617
H         4.78268685860910   -0.32300146455792    5.59560498376634
H         3.28806121533017    1.96942135292689    6.76457542857468
H         6.00129954499927   -1.90023640496622    7.89776443127431
H         4.29164206107374   -1.91696798703413   10.30743930796575
H         4.09833104411237    1.04816867946659   11.36831596988818
H         6.59179503258076    1.22665482577651    7.19243143341675
H         5.03668658782959    2.84443412019081    9.05776051619134
H         6.70349118942669    0.13154390023212    9.98312933690579

