96
CSD_code = FUVGIM | q = 0 | S = 0 | Stoichiometry = C48H38Br2ClN4P2Re | MND = 5
Re        3.77038541156653   14.56539063870194    4.73469568641541
P         1.53406245308755   14.51470707391096    5.69140977629236
P         6.13233189841325   14.36030691142115    4.22185017433178
Cl        4.04131483236938   12.39225798084078    5.65798135892315
Br        0.60790889764984   19.98484453073579    0.04926324330012
Br        5.61934523217033   17.72508880046319   12.01924769516444
N         3.06572991793984   14.37348661856428    3.05651358045587
N         2.40054434318185   14.57971478471917    2.06714331376749
N         4.04861079210292   16.08708714099701    5.61847003218545
N         4.11644995639424   17.16844474309966    6.18802475455811
C         0.69261976761499   12.91100735663249    5.71580890173064
C         0.84312113396435   12.08724609859807    4.60376318017337
C         0.21471023502847   10.85716983567049    4.56562172469146
C        -0.56527666148701   10.44595508220446    5.63484111307806
C        -0.72086072740677   11.26733060487307    6.73971324557509
C        -0.09476090406239   12.50020049669271    6.78578329965962
C         1.58219695706362   15.05647092417962    7.42292406101900
C         1.10590769995354   16.29043473957784    7.84851938784056
C         1.28833673305697   16.67890773497074    9.16478239331070
C         1.93884233652621   15.84404279613264   10.05705098379779
C         2.41565868835384   14.61266338932869    9.63412472372726
C         2.24837527873469   14.22191936040705    8.32027477454393
C         0.35968535886301   15.62371860072989    4.85603007729269
C         0.79665449810470   16.91415845778850    4.56013784902507
C        -0.03753327230459   17.79270313212870    3.89650546636521
C        -1.29920111066507   17.38154094411443    3.49591849448319
C        -1.72873574466548   16.09482530539839    3.77278166350318
C        -0.90684275116625   15.21558107051175    4.45700478375022
C         7.11355515065473   14.61422770134415    5.73210722714058
C         7.11219440294319   13.60409622011110    6.69355858647798
C         7.74578825236918   13.80225772258264    7.90575983404102
C         8.37238775983593   15.00925412715075    8.17387369353331
C         8.36798651354900   16.01694644675749    7.22400465681251
C         7.74053968365693   15.82544387567902    6.00575248776645
C         6.82948490229063   15.55956447388126    3.04309334528083
C         6.35723839253664   16.86918604001377    3.10000678180862
C         6.84591910959330   17.82320223795715    2.22794936398774
C         7.80293264084461   17.47453584233996    1.28774013159910
C         8.27020168912256   16.17251537628703    1.22462502405883
C         7.78769662254692   15.21359684638995    2.09861984659410
C         6.67389805784026   12.75466589958290    3.57664368184000
C         5.80883826332717   12.07226156075881    2.72752815840250
C         6.18248165980119   10.85352754494444    2.19311742691984
C         7.42027826733014   10.31347079636592    2.50276289544195
C         8.28665207718199   10.99490096749878    3.34258690530784
C         7.91964176850154   12.21513615360341    3.88068986862795
C         2.03030639854595   15.83318295323422    1.60584022752101
C         0.91537671787214   15.91931148911508    0.77176786048297
C         0.49559837919300   17.14887480084342    0.30979616086434
C         1.20654113376235   18.28417884978941    0.66469257684311
C         2.33353610202810   18.21364205943516    1.46827783098492
C         2.74154632176735   16.98721620503150    1.94514814570778
C         4.48047623018301   17.26048193766623    7.52365434972523
C         4.97222370503019   16.16669968968725    8.24304291225197
C         5.31999243984552   16.30562139090759    9.56745520482941
C         5.16629618138787   17.53922401405769   10.17845837007796
C         4.68329563290506   18.63693471780564    9.48368920631354
C         4.34595154322452   18.49852662482206    8.15397751246065
H         1.46390934630478   12.41495469079161    3.77918598150198
H         0.33856728974745   10.21474285294394    3.70630643216112
H        -1.05005202706546    9.48111982248879    5.60922472133376
H        -1.32956652939079   10.94501491647000    7.57195299536114
H        -0.21299258082244   13.14109467766590    7.64882527959634
H         0.59698619269908   16.94348406343522    7.15401010648053
H         0.92269932237763   17.64073134653887    9.49303884580460
H         2.07974313531817   16.15404142866631   11.08192321058770
H         2.92667411124465   13.96247683309676   10.32886092508739
H         2.63887717080767   13.27366772908466    7.97280255762421
H         1.79831984540755   17.21109784421625    4.84582387062185
H         0.29805837422167   18.79616898665176    3.68162205500035
H        -1.94489237880921   18.06404538471426    2.96370358559390
H        -2.70948898064423   15.77219621643495    3.45544252466077
H        -1.24670883364416   14.21274830647017    4.67492029032184
H         6.59857567116951   12.67393726870634    6.48981718427843
H         7.74294904868576   13.01599682422316    8.64663142589389
H         8.86017724779018   15.16628836038052    9.12454059510588
H         8.85124259082865   16.95990934620280    7.43361349489650
H         7.73671855279852   16.61595845694577    5.26878713053794
H         5.60337797250195   17.12476905146750    3.83529063477132
H         6.47874822204394   18.83763620343344    2.27705098154380
H         8.18114673475638   18.21728424939952    0.60127074423272
H         9.01334503651777   15.90014611727330    0.48963525168697
H         8.15282407610595   14.19782140082865    2.04319265717233
H         4.83877945192237   12.49962694014387    2.50268035317157
H         5.50679210890928   10.32090586523736    1.54028016354734
H         7.71013199234577    9.35751564354792    2.09207856309349
H         9.25172410124372   10.57263349078262    3.58237299999962
H         8.59464402344638   12.74709399832253    4.53760920305328
H         0.37594182916514   15.02138183308065    0.51493097888237
H        -0.37698911905543   17.23002440798141   -0.32023590774468
H         2.87669360001084   19.11079868346198    1.72391999959347
H         3.60776831937235   16.89752069416716    2.58679435904475
H         5.07380737070694   15.20932804861157    7.75100831427529
H         5.70250821058417   15.46383761261375   10.12429141981419
H         4.57343746612105   19.58812793512127    9.98218299965315
H         3.96588478429759   19.33638274942655    7.59120705893122

