113
CSD_code = FUVGOS | q = 0 | S = 0 | Stoichiometry = C56H47Br2N4P2ReS | MND = 5
Re        3.19842760577087    4.51666475949049    0.49163026547630
Br       -2.30998230278336    3.40960096072166    6.72855278709964
Br        9.11353310402534    9.53203492931811    2.15363149974427
S         1.29269608158490    3.33174292646431   -0.65687910446032
P         1.87806753814003    6.56784747866438    0.34738599473825
P         4.56957195747977    2.51614090969116    0.66803727087606
N         2.73244598193574    4.45534315869559    2.22158500783751
N         2.56969975276965    4.69347528813994    3.40470697213095
N         4.44212600399920    5.34816366827055   -0.52000522827768
N         5.23829710827363    6.13361235351676   -0.99891873923969
C         1.92732908927863    1.98543018666897   -1.59575030410996
C         1.71330032459191    0.68931160430611   -1.14342644545308
C         2.12114317309979   -0.40636454455514   -1.88622307737038
C         2.73121143166839   -0.18403296558849   -3.11270856494755
C         2.93463710315573    1.10483029367310   -3.57246795970767
C         2.54189073891333    2.20809082674656   -2.83340769014653
C         1.88296121679124   -1.79576702716649   -1.37435297368706
C         2.76188189333300    3.59889287085054   -3.33172518659058
C         2.90977866035278    8.00720599533132    0.76588494684528
C         2.97871653303733    9.15132116828358   -0.01858496820140
C         3.83344609175968   10.17987758561482    0.34017073377014
C         4.60583055617070   10.08097080639502    1.48483467680043
C         4.53112621588294    8.94491339076467    2.27549316726095
C         3.69864474605733    7.90476668235118    1.91096379662117
C         0.49514964185318    6.62254485119088    1.52173462376610
C        -0.54116164569615    5.71319618263323    1.31088976192059
C        -1.60301292218706    5.65880419391416    2.19254375069245
C        -1.62769084555671    6.49066244923987    3.30152396378206
C        -0.59080553099612    7.38066470782837    3.52200154819899
C         0.46944860544326    7.45415647612557    2.63440434601049
C         1.14693839766945    7.00302593387437   -1.25538731237311
C         1.97644983720910    6.91183551381601   -2.37123578922895
C         1.48982881128487    7.22108134565419   -3.62657110289861
C         0.17181076231780    7.62272774370877   -3.77719276056996
C        -0.65267373199802    7.72240158421343   -2.66898390929448
C        -0.17166196281829    7.41524670710455   -1.40798191731361
C         5.17117771733379    1.66743073113043   -0.82137761161243
C         5.70746023375719    2.46161777099476   -1.83328578078554
C         6.23933674686349    1.87853950465453   -2.96645462306468
C         6.24047512383724    0.49900316139301   -3.09791890173937
C         5.69472873953544   -0.29111792396356   -2.10125882635357
C         5.15480997628085    0.28644405042450   -0.96563925787369
C         6.12438221665970    2.93246921597444    1.53607851055396
C         5.98620661066534    3.41306464325589    2.83846964023978
C         7.09618227593988    3.81326761303704    3.55568581619051
C         8.35441640400527    3.75018833283065    2.97547453642317
C         8.49551525977491    3.27707260051151    1.68274473273727
C         7.38660765355279    2.86577530834687    0.96146318397742
C         3.93979881126570    1.19779863076101    1.74820258699216
C         2.58431321619545    1.15041016499189    2.04490726377014
C         2.08744510753170    0.16634986089890    2.88052830739052
C         2.94562915985197   -0.77675771447806    3.41988589991910
C         4.30112287891413   -0.73122488964442    3.12936208938102
C         4.80292086963381    0.25440672509076    2.30046278437336
C         1.45080619330449    4.34912216574193    4.13643935339726
C         0.39131601256217    3.60989602051882    3.59773869583244
C        -0.71174577842220    3.31932422395949    4.36897430048231
C        -0.76481160010785    3.77716297243711    5.67573275370636
C         0.27469161932772    4.50892762747849    6.22869047259420
C         1.38420592350704    4.78907211518527    5.46065715566463
C         6.11966209911267    6.89402352120357   -0.24887682463035
C         6.46304178644413    6.54892760777146    1.06169318604032
C         7.36390672895626    7.31576948801942    1.76564692575296
C         7.90514705764088    8.44087789286958    1.16463467676577
C         7.57726340266015    8.79877349397209   -0.13383793317184
C         6.69250320481563    8.01767434081254   -0.84633461357554
H         1.20805372587722    0.53618477557902   -0.20087731428994
H         3.04645952032717   -1.02349919567503   -3.71630486367559
H         3.40716027692416    1.25905959952144   -4.53305975633893
H         2.56908853788790   -2.50208775146736   -1.83669847622826
H         0.86504750955124   -2.11224435121367   -1.60504551019956
H         2.00851759987421   -1.83526591240062   -0.29333148068113
H         3.33538289205995    4.17040453212594   -2.59668686154066
H         1.80718205400996    4.11047743276202   -3.46415571965857
H         3.30122981933642    3.59737532526860   -4.27602482532646
H         2.37323668231814    9.23529421258264   -0.91009220684660
H         3.89509937093864   11.06326917966030   -0.27832389612695
H         5.26987165931090   10.88687338284966    1.75997880781232
H         5.13244320506979    8.86699713911404    3.16908235323804
H         3.65847155647741    6.99529195718910    2.49998242517788
H        -0.49521809927116    5.04796388878728    0.45816547178593
H        -2.40916943621990    4.96098741585747    2.02104886453197
H        -2.45282404999541    6.44002455632919    3.99646706778717
H        -0.60566683043372    8.02359200378269    4.38984693895025
H         1.27343541284577    8.15518836341731    2.80790594055757
H         3.00393299860062    6.59838494160982   -2.24490640576492
H         2.13568414843500    7.14340273880518   -4.48888849769914
H        -0.21254130836537    7.85727389158825   -4.75888489447899
H        -1.67873194673457    8.03934509731550   -2.78567209853525
H        -0.82016104086922    7.49649470663658   -0.54757344731137
H         5.70399233868881    3.53826126297989   -1.72254086138009
H         6.65469540603359    2.49927967572339   -3.74690341757588
H         6.65960105388777    0.04120363921246   -3.98173368420057
H         5.68664238674370   -1.36590331134668   -2.20663571530039
H         4.71946605687007   -0.33657609264816   -0.19850955153827
H         4.99651721323738    3.48012069892677    3.27368080997316
H         6.98133771488282    4.18257946964507    4.56422387960700
H         9.22307898988639    4.07215322081897    3.53034832509350
H         9.47452043978550    3.22798649319949    1.22892361203999
H         7.50764682396981    2.49604374574263   -0.04680675977271
H         1.92868053343921    1.89483107135975    1.61302488997422
H         1.03276874113726    0.13683241650200    3.11272633218612
H         2.56121554801846   -1.54694857559605    4.07223784176302
H         4.96920028215892   -1.46566462405562    3.55520936064236
H         5.86175653968696    0.30038701576324    2.08245957961443
H         0.43640206746107    3.28889561454435    2.56787335978907
H        -1.53269410826751    2.75086322689098    3.95881906249377
H         0.21125901960153    4.85486717968128    7.24917297993332
H         2.20512562036905    5.35916252109667    5.86651942319574
H         6.00744138809225    5.67809576694159    1.51451593245179
H         7.63801739519131    7.04767150259243    2.77472431900926
H         8.01219613427920    9.68033647502583   -0.57931720928916
H         6.42033248319299    8.27682342546171   -1.85752470217484

