47
CSD_code = FUVJUD | q = 0 | S = 0 | Stoichiometry = C13H28CrN4O | MND = 4
Cr        3.27478480588319    3.47304145546043   10.09970525786993
O         1.27086096676713    6.08260615382137   12.73493283249572
N         4.07597345444551    2.15143267757740   10.99841120140688
C         5.29191155364880    5.21856704986628    9.45160429827067
H         5.37478390641905    4.97509771771542   10.51999636143882
C         4.96983160546857    2.60925977581672   12.03283901283752
H         4.98265610976216    3.70897137220626   11.99708831488821
C         3.96332204480285    4.59682509833016    7.48705271961162
H         4.69685263657162    5.29566343583480    7.06195000691666
N         2.21674695654651    2.68011496890710    9.16980410298193
C         4.10458991399759    3.25353684614577    6.76760834088674
H         5.09381901594607    2.83073426751123    6.93204458258261
H         3.94714826588931    3.38005634810487    5.69984309120212
H         3.35517467400255    2.57393717367478    7.16652205097037
C         2.45503637561846    0.32540061739965   11.15529860650068
H         2.16495241599640    0.60516265383385   12.16582580521696
H         2.31906482785045   -0.74577990667404   11.03092004056414
H         1.82226798727866    0.85998905916974   10.44819927369237
C         6.65246466659202    4.88480972427091    8.81581947035540
H         6.80185008522528    3.80559564880221    8.80524485943821
H         7.45276555955632    5.34440330089785    9.39166036727176
H         6.71625449233033    5.25059504967881    7.79387038262418
C         3.91104194273841    0.71325085997854   10.88577864587949
H         4.55084649486260    0.20651012248555   11.62168478524759
C         2.56051560475757    5.16597812784722    7.25356668776839
H         1.83233474880556    4.47770825784575    7.67996208833329
H         2.37323663856064    5.28189338121144    6.18890344252425
H         2.45454434218591    6.13446975242001    7.73855732362466
C         4.32489084142031    0.24762273060617    9.48689674197301
H         3.66963589630217    0.71909696412798    8.75903814936148
H         4.23677421716286   -0.83288821895669    9.40811198477500
H         5.35452325547716    0.53277829276180    9.27683953934731
C         6.41899108992570    2.13362098512016   11.83752970338871
H         6.50742183572847    1.06047142038691   11.99015728817667
H         7.07285249328107    2.63335702554327   12.54891421717092
H         6.75594704758464    2.36819321722681   10.82858841389757
C         4.45566852661028    2.24303928500925   13.43475711809549
H         3.42941407974313    2.59174155300878   13.54724330876462
H         5.07385297430665    2.71989991721109   14.19244287483347
H         4.48014508600799    1.16812109549043   13.59824855521267
C         5.00587270410668    6.72701581853909    9.37611804621625
H         4.98353226904153    7.07439880004832    8.34581063876563
H         5.77832578532492    7.27852057184866    9.90794466245693
H         4.04149842249572    6.93925424817597    9.83688214909187
N         4.20598245747064    4.43784129183539    8.91113975380518
C         1.78269821619203    5.34014983145113   11.99243060739283
N         2.34334070929960    4.60023418042129   11.25821229387699

