38
CSD_code = FUVJOW | q = 0 | S = 0 | Stoichiometry = C15H19ClIrNS | MND = 8
Ir        2.60096004443616    4.95665534577500    6.77475613944151
N         4.34746961514231    4.18563260155238    6.09618168296595
S         2.30518711495611    3.54360211132743    4.76742114320722
Cl        2.64981817050069    3.10317122993325    8.19832828383226
C         3.98770973498982    3.39482710324383    5.05945641690025
C         4.91823765087694    2.60090249949205    4.38665619477222
H         4.58822547846902    1.97761858782771    3.57196175890277
C         6.22855740417292    2.63898210382428    4.80562467843403
H         6.97609903774095    2.03607933169332    4.31272605029540
C         6.58672107130846    3.45667740563899    5.87961872630294
H         7.60579387962756    3.49887094138753    6.22691132443713
C         5.61311307488478    4.20766573714665    6.50376380273757
H         5.84042651085143    4.84072091320720    7.34989780891851
C         2.55081910116125    6.62851518727961    8.25785719673769
C         3.01635743340092    7.19529411926544    7.03065061740334
C         2.01923792726095    6.97359568452742    6.03888416698987
C         0.88106420078141    6.34733451354574    6.67861014025709
C         1.20421552966555    6.14175584239247    8.04091092123847
C         3.19092766859862    6.73221962657154    9.60322255615364
H         4.25159727270189    6.95598022457002    9.52335373902019
H         3.07218736843630    5.79928626948500   10.15032810836923
H         2.71355853155080    7.52696532303066   10.17947012345858
C         4.28954110964709    7.95168669838700    6.83540251119262
H         4.10328308106440    9.01961784502653    6.96084868161637
H         4.69244278694580    7.79414550649140    5.83718968236403
H         5.04117286897842    7.65167945662383    7.56143936048766
C         2.01997358802791    7.51642382971206    4.64754092383610
H         1.49342017102335    8.47218164070462    4.62154255662818
H         1.51670435162416    6.83419439005361    3.96605276868326
H         3.03401317867979    7.67549288307194    4.28865568858231
C        -0.44457060637409    6.13031153632358    6.02363875000608
H        -1.02327834252330    5.37761995783852    6.55229549390254
H        -0.31940397052519    5.80192391233757    4.99439052141203
H        -1.00937714867463    7.06434495494252    6.01857592849377
C         0.31008665750392    5.65191172520546    9.13335496421281
H        -0.65752858824136    5.35083303984847    8.74241800806820
H         0.16203132861789    6.44206418822179    9.87019036118662
H         0.75830571263507    4.79611573243770    9.63627221855311

