59
CSD_code = FUVKUE | q = 0 | S = 0 | Stoichiometry = C19H35CrN3O | MND = 4
Cr        3.61936812396599   12.19433171669899    2.54982125270542
N         3.41915235757974   13.23796699087298    3.76285822872723
N         3.32876500890059   13.23482683241634    1.11244341210801
O         5.22766915978314   11.54053276727237    2.49294212691558
C         2.92504442194686    8.59712394307426    3.09193709189522
H         3.73651700421339    8.90423101221247    3.75125742886242
H         3.24305351364266    7.72313725673297    2.52681322391309
H         2.06826748662451    8.31835803213891    3.70120382330860
C         2.57778656223704    9.74868793506906    2.13087577905642
H         3.46967802365382    9.90192744988934    1.50779852959750
C         2.12820390412101   12.71758065801419   -0.99555799690662
H         1.23589576440279   12.57092876521183   -0.38849603600791
H         2.11942084285175   12.00362398693409   -1.81671381988489
H         2.09660452029342   13.71999791683532   -1.41563703566957
C         5.10946905093110    9.84663796146688    6.35758354843038
H         4.39829756390607   10.09387402751959    7.13196858567624
C         4.52423048292143   15.31447097553135    1.59899483166196
H         4.59732358782464   15.02274717646155    2.64533221055865
H         4.47573186070910   16.39833930760720    1.52469704723155
H         5.40975334578981   14.96376518068811    1.07211046867915
C         0.18017212327284   12.07063946095698    3.27346844931289
H         0.68080245247263   13.03285574453336    3.34003060969424
H        -0.69919705977990   12.07131253742466    3.91322241984932
H        -0.13543981255619   11.90515136727232    2.24469096832753
C         6.41812963272126   11.38795476348662    3.16730301498413
H         6.74819650898219   12.36769414032381    3.55792189509610
H         7.18921516148015   11.01067416668507    2.47087760436208
C         6.71669778099278    8.33655508290679    5.41727301093603
H         7.25762603843378    7.40191615230102    5.45223658439842
C         2.02779213394287   15.21167087476306    1.74745888105098
H         1.11836941018350   14.78707307972985    1.32824385367518
H         1.98020854298496   16.29516711689421    1.67455336385138
H         2.11056384766000   14.92010284677107    2.79172896165246
C         1.58787260295034   11.21893708843310    5.16475578957260
H         2.21819102315057   10.40480272386984    5.51411363349600
H         0.71574893165877   11.29887716380392    5.80849670078897
H         2.15648282660776   12.14660178386395    5.20049658791335
C         3.38293547637152   12.50957418947705   -0.12776519451244
H         3.41784765895295   11.44100353375989    0.11634197928524
C         5.80291493271576    8.64745859773465    6.40914784470693
H         5.63070528006887    7.95566116952522    7.22073920729191
C         4.65869469756629   12.81399921179541   -0.93115023669039
H         4.66683878498174   13.84205768585066   -1.28625614867377
H         4.72618202763025   12.15208890751608   -1.79249350315971
H         5.53102090433797   12.65686738541008   -0.29714148614987
C         6.93629858808032    9.22015725500372    4.37320591613106
H         7.64788898786858    8.97169685272153    3.59767358248396
C         6.24711001752155   10.42331699122838    4.32033412812401
C         1.43853795974865    9.33335230714311    1.18208181615699
H         0.55331435248827    9.03085920345957    1.73674410332040
H         1.75619991006222    8.49488739956238    0.56547841829330
H         1.17028692770622   10.16394981749806    0.53137796932087
N         2.31599157152922   10.97905961847446    2.83254702187204
C         5.32934622788424   10.73315961591381    5.31835154002115
H         4.78704939483740   11.66873032433437    5.25892797409727
C         1.16272301139110   10.98060668174240    3.71455478214635
H         0.64986666232271   10.01034718602821    3.65774345470612
C         3.25845545953086   14.68052389137987    1.00993325634950
H         3.18342643493256   14.97396618776144   -0.04648145493246

