66
CSD_code = FUVKAJ | q = 0 | S = 0 | Stoichiometry = C28H32ClIrN2O2 | MND = 4
Ir        2.87071488710071   13.62183700189063   13.31085696853696
Cl        1.33044013985672   13.84676483385315   11.66002104025157
C         1.36308814014275   13.66875505613708   14.42469811661363
O         0.35806640280981   13.72120972691183   14.96957427386205
C         4.07946144153820   13.37101120793936   14.68430742609486
O         4.80137182613155   13.19047428239138   15.57118277862206
N         4.84760833038210   14.64185306151969   11.15737440465186
C         4.32978419715251   13.61345949343555   11.85627775128888
N         4.93393360243280   12.51340906942567   11.36524394831415
C         5.83456771250833   12.84306558186388   10.37945023156929
C         5.78059022604039   14.19516541128205   10.24643636927223
C         6.66447720591046   11.84451693715052    9.65484141688579
H         6.29879639037602   10.84409761795848    9.89906604617557
H         7.70254518435266   11.91164300887219    9.99783808513135
C         6.63030698317491   12.04739754006074    8.13792366783368
H         5.59315879604645   12.06288666917472    7.79542389798094
H         7.11718342107912   11.18686966797516    7.67365291253433
C         7.34055587517777   13.31608646826762    7.66219544693032
H         8.31922079358799   13.38492140397446    8.14311889958544
H         7.51158562342307   13.22033776226301    6.58724241964228
C         6.56743914841299   14.61476651699462    7.89723837156416
H         5.53933507516842   14.48816649475084    7.55049537431094
H         7.02354037022063   15.40025548776987    7.29051130352294
C         6.56505869480265   15.08973199743615    9.35293644328262
H         7.60034036626139   15.14048265792899    9.70799590657079
H         6.14815881522396   16.09805760256335    9.40866166293416
C         4.66876469112224   11.19826136034163   11.83609740149502
C         5.45604355145836   10.66383768054048   12.85650423853079
C         5.16140911301250    9.38914039651582   13.31431256106015
H         5.75801204170766    8.96643263969777   14.10957527526847
C         4.11856241667297    8.64764218790488   12.77615755628718
C         3.37480758496271    9.19300390725059   11.74044376341131
H         2.57174703833978    8.61820767545934   11.30233248675765
C         3.63539007737388   10.46402538301000   11.25009797318294
C         6.62101871826456   11.42046270289375   13.41963645906182
H         7.52775396547968   11.16940823485835   12.86698677633458
H         6.77620553807525   11.15545431651681   14.46183812053372
H         6.46845586342982   12.49458500599751   13.35477105174652
C         3.80557407024384    7.28596412731028   13.31597023673426
H         4.71807658521594    6.71629332816788   13.48027906246127
H         3.16176312202919    6.73428302916953   12.63592104813081
H         3.29271322086199    7.37789126731802   14.27324077662002
C         2.84354968063751   11.03577607105852   10.11827386753258
H         2.24130905670761   11.87651498393345   10.46575338430174
H         2.17745434189278   10.28723316350923    9.69831153090800
H         3.50031302128967   11.40371547909701    9.33046644547097
C         4.48073140084381   16.00452854100845   11.33617358622764
C         3.56788364149382   16.58941534790741   10.45738575567298
C         3.22869114278780   17.92049102579176   10.65499601718383
H         2.51428080866144   18.38057837221204    9.98767658884141
C         3.77644859478658   18.66568502247051   11.68723044972255
C         4.69704133091689   18.06087237804254   12.53298948757279
H         5.13598602662406   18.63510142437993   13.33603599224229
C         5.06416767997809   16.73498724236913   12.37230737908614
C         2.94605681267992   15.79575499207233    9.35417787492620
H         3.69425842632486   15.24861085714814    8.78406547290828
H         2.39218537877650   16.44256646815377    8.67933453923697
H         2.25479884041213   15.06802920131642    9.78306706546111
C         6.06065617520997   16.09702472032576   13.29193890539059
H         6.58093635480169   16.85322239935596   13.87340047991864
H         6.79450337483675   15.51715697576410   12.73349811625297
H         5.54993289941819   15.42293248274706   13.98022815766874
C         3.40739181653283   20.10457737835420   11.88168159478439
H         4.22584442591379   20.74836137616138   11.55844260399023
H         3.21609489474009   20.31129148904942   12.93264141524263
H         2.52205662612948   20.36095680513426   11.30589333784669

