56
CSD_code = FUVLOZ | q = 0 | S = 0 | Stoichiometry = C18H32ClCrN3O | MND = 4
Cr        3.43174002390191    7.33987117810628    3.51432165214322
Cl       -1.68134036937190   12.58763975970236    3.25147164306499
O         2.33873684311686    8.41827261094201    2.61404964507807
N         2.96920279502778    5.62594938829064    3.26198376959018
N         5.14231077510656    7.80365041838605    3.24193560475420
C         2.92945349314996    5.24627003516503    1.87480743355653
H         3.33546778324614    6.08203507353023    1.29038533552005
C         2.49936932234957    4.63438244752522    4.21218813595718
H         2.22071212547212    3.71442840073638    3.67995061250323
C         6.17058397522237    8.21099817760492    4.18152911823851
H         7.07699991821144    8.50543049525172    3.63463358293298
C         1.48857110150123    5.03684689109323    1.37950629193992
H         1.03045216174660    4.17079061584131    1.85161827169019
H         1.48218728631490    4.88464166090993    0.30204642454240
H         0.89220915285543    5.91847994426274    1.61500786437179
N         3.27180637813790    7.51418897894845    5.10829536628577
C        -0.18553987384078   10.87647555052557    1.79830172959589
H        -0.69130699982509   11.28093170072876    0.93519382268269
C         3.60597973766467    4.29602810935870    5.21421268328667
H         4.49631923912195    3.94350423991308    4.69735159061307
H         3.26916027455096    3.52609044940894    5.90354234411109
H         3.85147997370480    5.19782777828399    5.76834801701701
C         6.66334627112648    7.00197696082095    1.44534037515558
H         7.59696644292018    7.36487847518033    1.86854831694072
H         6.76506128375904    6.98175055722794    0.36241936438270
H         6.49479803236518    5.98642301988387    1.80065716191560
C         5.47991154115162    7.89871319513226    1.84653587697809
H         4.61158470694229    7.55303838963772    1.27002840840898
C         3.80331308059789    4.02139423416017    1.55414332178184
H         4.79893752213510    4.15814601927819    1.97386742111354
H         3.89054185362734    3.89857841097506    0.47676798161272
H         3.37784577031407    3.10996943832765    1.96715572745860
C         1.42664864941120    9.35881137770978    2.76547444012936
C         5.72296321300927    9.35464147490545    1.41380036141591
H         4.86963609676708    9.96697539465064    1.70582755284103
H         5.84092439060401    9.40767483807334    0.33337662147386
H         6.61864309327601    9.76157570367157    1.87734669790893
C         1.26781895572501    5.15693802047937    4.95754434663826
H         1.54416836177939    6.07777614536187    5.46824210714561
H         0.92562394846193    4.42456497727785    5.68421290207522
H         0.45943770717072    5.37094505218654    4.26124107971904
C         0.76696098946998    9.88764358506306    1.64822015851235
H         1.01138122185407    9.51228314568342    0.66427936338037
C         0.15206850688458   10.83679521955714    4.18571205084570
H        -0.09605183676455   11.21343543076199    5.16575479505753
C         5.68971923520374    9.40679098489510    5.00771489668095
H         5.47105232746407   10.25552504680103    4.36298053408885
H         6.44591528274140    9.69629371070913    5.73269196342460
H         4.77768258751497    9.11547058499912    5.52594517840289
C         1.10296528603056    9.85015384698116    4.03726900013547
H         1.62281507628211    9.42473683644392    4.88666291645024
C         6.52500063892480    7.04677111631225    5.11066644126735
H         5.63838023375337    6.77993459676416    5.67908430785426
H         7.32084409638318    7.33608629278436    5.79222735491190
H         6.85020624040134    6.18255219174639    4.53462993899915
C        -0.48836592465148   11.34702182104130    3.06485009541934

