56
CSD_code = FUVLAL | q = 0 | S = 0 | Stoichiometry = C18H28CrF5N3O | MND = 4
Cr        8.29871751524732    3.18027894616228    3.00020708945794
N         9.42528991691325    2.18743127211207    3.97595296237476
O         9.51807693894334    4.07796577096613    1.89081412626649
N         6.84023065938920    2.28808471587573    2.45729418139069
F         6.92640637826835    7.80213947909991    0.68377018768805
F         7.18287855469358    5.10058134440936    1.37700106975610
F        11.60087322555481    8.27790827143272    1.17910925544400
F         9.17394744190396    9.36406735399676    0.59485943872008
F        11.81631538992469    5.64247565227921    1.84798442959990
C         9.26566076691326    8.06965605254909    0.92608984442784
N         7.71541739795574    4.19128633445912    4.11724570439376
C         5.49860790026902    2.22967738249447    3.00716604619068
H         4.85365607443282    1.63558591557695    2.34665288315322
C         7.06345598092800    1.56519622177225    1.22939754420865
H         8.11559043092638    1.73139011364260    0.94207810901896
C        10.61407848353015    6.16968699641080    1.55747815410239
C         9.48027567115020    5.33773126629418    1.61341707643734
C        10.02252600090782    1.06705363608934    3.29734855546483
H         9.51025275651240    0.96160463085214    2.33327742082960
C         8.24781168127120    5.94449490868652    1.31153483806650
C         8.11996701031420    7.27603975400012    0.97236899445997
C         4.91275139661454    3.63614584090746    3.13194532271621
H         5.61736556060134    4.24716239895612    3.69491593562667
H         3.95984564962783    3.60568853735072    3.65221584248516
H         4.77061394282509    4.08143085164648    2.15126605224099
C        10.50659105891337    7.51129089329841    1.22290736297840
C         5.53341035411424    1.55401577521079    4.38206664926564
H         5.96580158095692    0.55759130314037    4.30890758279706
H         4.52724126667680    1.46931104894876    4.78447811507536
H         6.14209670080929    2.15789046253126    5.04944065625410
C         9.83531655890863   -0.26089071266266    4.04928053671694
H        10.45436114920822   -0.30378173051633    4.94171260889003
H        10.11022065119394   -1.09335516104190    3.40530838229195
H         8.79367912780376   -0.37159767268618    4.34717038278982
C        10.59498544140773    3.86658028415471    5.31005728654893
H        11.36560105410615    3.93466249507037    4.54485641616977
H        11.04436951819396    4.06144250994243    6.28062101343532
H         9.83039954077029    4.61502067527213    5.10930531930432
C         9.94164479792236    2.47995162340693    5.29820210657120
H        10.70244971151351    1.73629448666820    5.56695594435479
C         8.82305669104846    2.42784224200981    6.33939570079110
H         8.07177572791108    3.16485714949757    6.06257637979339
H         9.21534717392973    2.66503889119476    7.32423965853026
H         8.36727914278493    1.44084264452628    6.36549397889606
C         6.21364410262207    2.10920646575156    0.06864333051231
H         5.15992967321581    1.88468297639057    0.21475761694777
H         6.53350320747269    1.65479040905736   -0.86672230304271
H         6.32898290496221    3.18798021525844   -0.00566574257899
C         6.85664633279136    0.04811096631756    1.37369575648123
H         7.42550659524889   -0.33587160336068    2.21836243962566
H         7.18680411270985   -0.45888073048708    0.46951665589048
H         5.80640880992340   -0.18612202495733    1.53111129020809
C        11.50396381996263    1.32292051160137    2.98025118767019
H        11.60809766365049    2.27964082064534    2.47045111593208
H        11.88641858034819    0.53661732062646    2.33307896807712
H        12.10455422329575    1.34525381717528    3.88625253829848

