70
CSD_code = FUVMOZ | q = 1 | S = 0 | Stoichiometry = C34H31ClN2PPd(1+) | MND = 5
C         1.87318787102343   13.37353815566678    8.93583691527999
C         2.32526823001706   12.86598324132770    6.79278184614017
C         2.31632562453781   12.66647807909835    5.42226128817047
C         3.44721699952558   12.09789730219181    4.86759395270382
C         4.54324981387575   11.73817771911975    5.65084143458874
C         4.55982377289634   11.94264601433661    7.01748518302871
C         3.43199920458574   12.51799629875415    7.58329862948009
C         4.00115164600836   12.76142003657899   10.00689055380564
C         0.16162975329943   13.99505077313411    7.32192331490957
C         0.19361266226078   15.29662506629061    6.75568250327817
C         1.40144124962658   15.96723798578503    6.46556886881966
C         1.38507529528174   17.22770982887562    5.93521171988085
C         0.16891428823055   17.87585062908927    5.67040764377022
C        -1.01770578962626   17.25556944979537    5.94891638301193
C        -1.03948695450354   15.95895217303185    6.50114374282468
C        -2.25280722362347   15.31559841323710    6.82972537106060
C        -2.25874300875746   14.05994915388804    7.36032431053206
C        -1.04264037161145   13.37945834569879    7.59660832068097
C         0.29386285563274   10.69109405100235    7.93132021421336
C         0.50964088116875   10.28399646448323    6.61472295541989
C         1.60357485611576    9.49640940358793    6.31361025489188
C         2.47738186736752    9.11260323873571    7.31959016083888
C         2.25268134438540    9.51213148415778    8.62668459565889
C         1.16009477227415   10.30108288508810    8.94698566086813
C        -2.53785850321125   10.89459400326005    7.39575388932278
C        -2.83692917409359   11.21065132394960    6.07242746072728
C        -3.84755314794112   10.53154934453888    5.41679963564221
C        -4.55497536629344    9.53523424925175    6.07140602470924
C        -4.25152547900177    9.21339162557672    7.38485038155244
C        -3.24173141936889    9.88658868365618    8.04867455542909
C        -1.55743675698777   11.83563158989124   10.01463331661421
C         0.39198474880481   15.97880260265572   10.09611921882424
C         0.57151422071740   15.89287859080121   11.49384449052499
C        -0.15505351626206   14.93446281601177   12.20206932221504
Pd        0.93396568594384   14.00685780116749   10.61469585990527
P        -1.16810953737633   11.69845403070948    8.25794617977892
Cl        1.27109085470159   12.03676738116867   11.79131749525139
N         3.11363759650536   12.86964040692034    8.87791360340959
N         1.37887466052288   13.36642461618979    7.66675573967709
H         1.46874962335707   12.95096741739233    4.81869012687654
H         3.48512140044553   11.92930305729617    3.80310156404312
H         5.40261939526676   11.29388394164726    5.17434776946045
H         5.41134333721851   11.66503363527346    7.61670496805879
H         4.10074359680802   11.71989864551121   10.31658715985839
H         4.98186285306100   13.16158916254632    9.74824014397957
H         3.57677396550056   13.33851331336044   10.84050786922845
H         2.34343863138720   15.48019960773292    6.66697436053226
H         2.31322131536704   17.73352522972099    5.71858300752846
H         0.17855323358193   18.86954911192556    5.25042615724137
H        -1.95709484398670   17.75021835348251    5.75414167573295
H        -3.18084318482197   15.83849418392528    6.65487256931342
H        -3.18960380006776   13.56814356079698    7.60613488638704
H        -0.18051732614466   10.57915733790170    5.83622562113308
H         1.77379186818989    9.17976760049311    5.29653790883625
H         3.32996520639387    8.49572797444432    7.08183414183583
H         2.92576053283238    9.20399806516618    9.41161922827264
H         1.01232087741074   10.62927714175870    9.96948475525149
H        -2.29141251048355   11.99443085514197    5.56441842384565
H        -4.08320540084604   10.77993260486800    4.39347745309991
H        -5.34305980342973    9.00862796062835    5.55639064502918
H        -4.80069950335240    8.43588196074960    7.89260378029344
H        -3.00132156942722    9.63038270554929    9.07004138138842
H        -1.48279907237196   10.86438836940016   10.50374527340723
H        -0.81818704062366   12.51989507765908   10.48485603923235
H        -2.56723287485373   12.23643075423469   10.11979694116430
H         1.01220914148737   16.66960337263473    9.53479683899038
H        -0.61927150971267   15.86679010613857    9.69855581589524
H         1.42726308584685   16.38294270806129   11.96013830257660
H         0.04217098173040   14.79739851209588   13.26068052731106
H        -1.18490511245970   14.71646241381146   11.89686166674261

