60
CSD_code = FUVMAM | q = 0 | S = 0 | Stoichiometry = C19H35CrN3O2 | MND = 4
Cr        1.40195003696842    1.17168656005976    3.11194732186624
N         2.44663551363633   -0.28362983221354    2.99557742222799
C        -2.45003490721633    1.98841016677308    7.15467795715265
N         2.05682230524203    2.68289780809185    2.38784295175402
C         4.33389339121786    3.64577723044588    2.69105169427599
H         4.75261310197879    2.72377868911354    2.29080601151885
H         5.00041585701889    4.02619401596075    3.46230845404894
H         4.28658232375929    4.37983455590243    1.89011171368041
O         0.86509751502506    1.44056751434232    4.76647224938809
C         4.92382118338600   -0.44219128185320    2.95027080197507
H         5.01675858902423   -1.48788118311918    2.66706965755725
H         5.80371381379814   -0.16602985747035    3.52757104781295
H         4.89343360656076    0.15893227720903    2.04239180837262
C         1.74165651146977    3.35981696446168    1.14353793297349
H         2.28064771080173    4.31622007122858    1.09359641776235
C         2.17545969126209   -1.56962186369345    2.37961370713671
H         3.00726490789483   -2.25944270835832    2.57962857012317
C         3.61183820183416   -1.11024663659889    5.01274119555039
H         2.70083473703895   -0.91770641755465    5.57919735500651
H         4.47148789929914   -0.91479098429257    5.65087189806775
H         3.62772340612253   -2.15951651937538    4.72678653601591
C         2.94174037403295    3.37584720813161    3.28727073207626
H         3.09346690085312    2.73568708266128    4.16701446110597
C         3.65018486325129   -0.19405422288740    3.77820822890754
H         3.72195584500894    0.83317546469949    4.15708433059173
N         0.17732522730493    0.80766610835467    2.12841126096211
C         2.02946429061755   -1.41588759348642    0.86421906674368
H         1.19052003715062   -0.75181635352594    0.67174818811060
H         1.84269787028367   -2.38174050835668    0.40195053597181
H         2.93139794481218   -0.98486527560111    0.43479793052246
C        -1.21902089807706    1.65323208585429    7.71768021443096
H        -1.15621235235294    1.54733243078380    8.78940842522302
C         2.31102674733759    4.67640749703352    3.81544964650289
H         2.19306447746917    5.40990623584854    3.02102759346981
H         2.93908732794569    5.10807708415433    4.59217312228702
H         1.32998136916170    4.45632200923649    4.23727699261021
C        -4.75043067146127    2.48014226043944    7.52406856905318
H        -4.74179608280238    3.43887335321368    6.99464690356029
H        -5.40735234240709    2.55430579335447    8.38960167868969
H        -5.12320747721208    1.69913615417058    6.85327766136959
O        -3.48129233287746    2.16013116913190    8.03644881596784
C         0.89331621875563   -2.17339537280633    2.96333303027370
H         0.99095755191965   -2.31789971387919    4.03766434404907
H         0.67891125995464   -3.13169278103160    2.49644176931843
H         0.07283277694077   -1.48292884639424    2.77476735142185
C        -1.43749123446339    1.93345326186255    4.97450729241434
H        -1.49357938986414    2.02550017115592    3.89663830139833
C         2.18307227295461    2.49478181964822   -0.04134956275568
H         3.25076413141654    2.28938753600228    0.01349041376151
H         1.97112156988457    3.00042930620499   -0.98022566294224
H         1.63916922495907    1.55470688467356   -0.00221087492394
C         0.24031557545358    3.64196968745268    1.05208354138716
H        -0.28645108658068    2.69516321995195    1.16329798499464
H        -0.00598074726505    4.08809306468762    0.09219250706384
H        -0.07179372221499    4.31373858845688    1.84880923203613
C        -2.54831852300476    2.12531062527474    5.77312674545961
H        -3.48582394376641    2.38129856060209    5.30514936672113
C        -0.20183782845468    1.59922445110325    5.53278543673615
C        -0.10983360899823    1.46228016539790    6.92374281055298
H         0.84073298821655    1.20074281938622    7.36781891060888

