62
CSD_code = FUVNAM | q = 0 | S = 0 | Stoichiometry = C31H25Cl2N2PPd | MND = 4
Pd        9.55490573973667    4.51993280188514   10.78075334428688
P         7.65509551855151    5.48878764718636   12.77163354966639
C        10.39509137731292    4.49495046343253   12.52985897168600
C        10.86293685807927    3.53470533101209   14.50170583942012
C        10.85632166468991    2.85658835860700   15.70858669140610
C        11.93301625893908    3.06189847129575   16.55410746462303
C        12.97881677271474    3.91274489653257   16.20954195439395
C        12.98845568254617    4.60028053702938   15.00814080949488
C        11.91303790425266    4.40678957582446   14.15829491342441
C        12.41021777699867    5.82187466182794   12.13952013114946
C         8.72782205644982    2.94721070704343   13.30779218641176
C         8.67078681820776    1.53189938755833   13.37958186653742
C         9.82963469495378    0.73191905470453   13.48873692695501
C         9.72837308828787   -0.63025374212962   13.53157493310061
C         8.47370003885474   -1.25687234129297   13.47714216011422
C         7.33756169023699   -0.51040728127553   13.33870329286829
C         7.40379576674513    0.89625317921434   13.26540288674908
C         6.25244754246638    1.68052556550135   13.04972038861007
C         6.34114663048853    3.03635709818810   12.91600937837759
C         7.58420407931322    3.68834054678155   13.03542743396376
C         6.01931689863548    6.10852020551966   13.32029653699031
C         4.99177984821666    6.09261898399558   12.37768522418918
C         3.73630237344612    6.57154404460987   12.70111548014343
C         3.49714350107611    7.08590901239226   13.96547226816042
C         4.51853054751747    7.12218498368725   14.90004074359124
C         5.77559685321380    6.63831421823715   14.58267721004336
C         8.80105537492175    6.20411200362290   13.98193313871418
C         9.61275834481090    7.27736759412081   13.63616341616249
C        10.46611178845647    7.82457459105868   14.57789000275470
C        10.51375545622480    7.30453548656493   15.86159297104752
C         9.70202924627393    6.23726270142723   16.20990755076346
C         8.84341562452089    5.68825601200862   15.27519233405395
C         8.03088395768504    5.89117285041780   11.10538794686735
N        11.58598910612348    4.96019212454423   12.94118533166126
N         9.95329450623228    3.61453522270767   13.46674164450615
Cl        8.69779266525488    4.23112077159702    8.72407153857215
Cl       11.13856452959239    2.88842633412828   10.48136145522981
H        10.04846107487437    2.19284634675857   15.97503921728936
H        11.96305290256913    2.54771994149227   17.50240682896123
H        13.80103846897214    4.03973779088028   16.89687126834056
H        13.79877803100825    5.26140167042088   14.74602081576030
H        12.57884270970155    6.77587927161710   12.64402709144783
H        11.88848229745557    5.98367960280738   11.18280079655866
H        13.36729072975974    5.33911420976657   11.93636729444993
H        10.80060279179046    1.20067794736130   13.49110270579267
H        10.62036500746039   -1.23446811033087   13.59565402770931
H         8.41618654538477   -2.33421855872053   13.52162609240877
H         6.37030897348899   -0.98532889607151   13.26311272546902
H         5.29598666535982    1.18691830414826   12.96205445643754
H         5.45603504269733    3.62525972926157   12.72343575553219
H         5.18131907159216    5.70413048512745   11.38599311680796
H         2.94637140972499    6.54944356070430   11.96526761623204
H         2.51842691459354    7.46393564881917   14.21933562520350
H         4.33761979169017    7.53169455490681   15.88287201506545
H         6.56459157367536    6.67836044279856   15.31887906856051
H         9.59066386854090    7.66458198372180   12.62709643749603
H        11.09687600310621    8.65942481929375   14.31040311575394
H        11.18669402730067    7.72835627736801   16.59128939488949
H         9.74330301994927    5.82761701008966   17.20780750066892
H         8.21252914784093    4.84796878583142   15.53709456218488
H         8.21188063777217    6.96532803133857   10.99769529990252
H         7.20220471166574    5.58446709104264   10.45799725438703

