53
CSD_code = FUVNOB | q = 0 | S = 0 | Stoichiometry = C16H32CrN4 | MND = 4
Cr        4.90506767726905    2.11735962649048    8.61865162084193
N         4.84619527716817    1.11875667305038    9.88702601158831
N         6.08863919116630    3.47104370333096    9.19018885772400
N         5.67481312790338    1.12459723077181    7.34068439172729
N         3.23071202936704    2.75458072068724    8.50286884783234
C         4.92998317996638   -1.17745491951273    7.69409832482476
H         4.49401820508380   -0.89329142513203    8.64942985634538
H         5.25584843473005   -2.21348792500737    7.73743461149135
H         4.17601906190996   -1.07723104624426    6.91493587710392
C         7.17315475126725   -0.41472049253034    8.51509609964017
H         8.03352563050563    0.22110373033741    8.31626614846510
H         7.50294503932378   -1.44871851053624    8.57716888428073
H         6.72663382476051   -0.11470232730825    9.46145198434571
C         6.12074515635341   -0.25610501309705    7.41435581542061
H         6.57116548458964   -0.55389437465110    6.45707574905431
C         5.23566961112603    1.16297951327724    4.89069239715162
H         5.66383148933278    0.19268131008552    4.65056102478380
H         5.33593179343742    1.80466296016841    4.01781858657789
H         4.17622062075854    1.02955379426333    5.10719122236432
C         7.44673545422464    1.96518467052626    5.83802726945257
H         7.91822634121157    2.43030120944829    6.70356674320897
H         7.60871811536702    2.59819795346183    4.96794033657552
H         7.92089613561508    1.00352548599527    5.65645598941541
C         5.93998704166374    1.80527504837977    6.09756741126072
H         5.53782011438468    2.82424921870897    6.18878401933346
C         2.51573843703604    3.05956515595678   10.82171279562123
H         3.39094301121161    2.51312579221101   11.16869722780915
H         1.69386205165861    2.91352583671973   11.51840658196978
H         2.75808653822103    4.11984668547986   10.77826533311283
C         1.78802683735018    1.04881355291527    9.51339349233527
H         1.50510793807467    0.66586663861790    8.53465391381681
H         0.96659284972990    0.88967349042928   10.20689094242709
H         2.66845999696693    0.51374535779939    9.86400142455959
C         2.13475440970037    2.53757299404465    9.43289560744932
H         1.24343422681097    3.08187470269641    9.09100446919420
C         2.60689048357655    5.04525704033311    7.80322228057551
H         1.66314628369470    5.09524355802598    8.34105638677734
H         2.53546671800690    5.68504576610602    6.92586111625050
H         3.39640528453301    5.42385840387544    8.45165118414900
C         1.82469757978540    3.03544299300906    6.47201981081008
H         2.04918110879830    1.99853032900061    6.22304876491487
H         1.76373067241499    3.61258167995599    5.55174325863289
H         0.85410411575744    3.07004100249563    6.96094634774430
C         2.93130246640189    3.60426754604786    7.37649135464335
H         3.83810566578467    3.66000023897810    6.75777508813553
C         6.85632550972340    3.56013111523598   10.31453026548001
H         6.79784062893558    2.78633967751575   11.05959087783685
C         7.61323469254166    4.69852542714319   10.28560847037232
H         8.31025313196447    5.03048714293264   11.03073280085305
C         7.29832476255130    5.35886398197128    9.07447062324455
H         7.70590074931507    6.28749930664969    8.72111809736859
C         6.36971779969338    4.57957350450642    8.44167371049538
H         5.88946326127682    4.76665426438218    7.49279969260710

