63
CSD_code = FUVPIX | q = 0 | S = 0 | Stoichiometry = C22H31CrF5N4 | MND = 4
Cr        1.70495651613729    0.84771809999192    3.85124968530408
N         2.89766093251917   -0.13567828563720    4.31850864787771
N         2.35196501045621    1.56625099195761    2.19771737446687
N         1.72775582843980    2.13982865872706    5.08371700388819
N         0.34567150710147   -0.27156874893102    3.54150685322392
C         3.56359935569620    1.41295021672531    1.58410327838570
H         4.28718541784564    0.73365607578980    1.99720824188339
C         1.66182533123278    2.47930776487049    1.48379331554585
H         0.65215003544519    2.75508972650155    1.73546660443619
C         3.64468636788053    2.20609893509845    0.47819173623133
H         4.48004497587685    2.29891418169454   -0.18462166737297
C         2.40999111119065    2.91621345738913    0.39759088914677
C         2.02025350464984    3.90091252829437   -0.58542891838221
C         2.58322319944410    3.94174749914415   -1.86980600966287
C         1.06299790637920    4.88911878854844   -0.31450347963770
C         2.22555479522779    4.89616665702883   -2.81128500202576
C         0.69032502844154    5.84966276324965   -1.24194070870105
C         1.27334823554839    5.86219308564980   -2.50407839006373
C         2.65634776933681    2.30954108517020    6.18755456607093
H         2.40552235855270    3.22036301442106    6.74793873454580
C         0.35041764784359   -1.72297130448378    3.61343683663003
H        -0.63968350917474   -2.11219565630738    3.33963992902194
C         0.72675879166936    3.16898351981346    4.94276388833875
H         0.09853506332880    2.90139162572946    4.08166797414963
C        -0.90653259003491    0.32972003289027    3.15235409239206
H        -0.76504212531336    1.41986385042817    3.16345446804327
C         4.08462304433576    2.44710769471637    5.65238200336558
H         4.34044830057463    1.53783097427127    5.11169668935031
H         4.78207501089955    2.59147207428126    6.47340999814076
H         4.15856948456522    3.29394804948223    4.97278797669774
C         2.56906688088198    1.11588172134187    7.14180307875411
H         1.55990693372560    1.01155015342980    7.53641004593162
H         3.26037801181100    1.24538433336567    7.97001380146319
H         2.83022822014052    0.21555116252712    6.58902272728747
C         0.67277664961630   -2.18284196745724    5.03758548638413
H         1.65779277578987   -1.80493036903488    5.30455386707175
H         0.67489426229495   -3.26813698367206    5.09051126319982
H        -0.06054540348611   -1.79605657591213    5.74291272577238
C         1.38146284409742   -2.29253801773997    2.63503550811603
H         1.16373291032951   -1.96954064331865    1.61874253425920
H         1.37288856305691   -3.37890830713516    2.66948892713175
H         2.36657220884679   -1.92592752774618    2.91751459800787
C         1.34618965090279    4.53497305784843    4.60975950261443
H         1.91401726826148    4.92859908590734    5.44937936236841
H         0.56107262562857    5.24498120143363    4.36063161569716
H         2.01053807103817    4.43848207596200    3.75168800946105
C        -0.21245348115647    3.26543485423768    6.15581640478427
H        -0.60599534747401    2.27863044911610    6.39907953242945
H        -1.04416565784439    3.92804104074807    5.92751478984121
H         0.30390594706684    3.65620803610897    7.02930510211801
C        -2.05107450312129    0.02875523802655    4.13346165059135
H        -2.34864064292481   -1.01614334271653    4.09034629696816
H        -2.91747360046898    0.63984435315113    3.89050832964996
H        -1.73497115012557    0.25719854087819    5.15099011491739
C        -1.29973520044651   -0.03883653879179    1.71280835794376
H        -0.46945636213201    0.17018188004473    1.03855022858628
H        -2.16082010699542    0.54920846549637    1.40251033940815
H        -1.55673430966734   -1.09208249164676    1.62992292677142
F         3.48544528451399    3.02254023069972   -2.23703409872414
F         0.47891920922713    4.94298965708373    0.89715502480101
F         2.79259567336479    4.88371279221037   -4.02282495035582
F        -0.22761611099410    6.76980901737458   -0.91907508626723
F         0.92276358015280    6.78514806166707   -3.40596462824873

