45
CSD_code = FUVPUJ | q = 0 | S = 0 | Stoichiometry = C12H28BrCrN3 | MND = 4
Br        5.68139373684075   14.67143560373154   12.67607520905038
Cr        4.61393908070395   13.45558147389283   11.01937428175216
N         3.11417794904348   14.04374922869016   10.88236808872096
N         5.33636230576436   13.81913219920347    9.42997515765207
C         4.71455505812797   14.36893763793815    8.24103064630882
H         5.45661291674945   14.44429315494385    7.43381922349109
C         6.74661251305652   13.53116557472993    9.33982978110938
H         7.06948018292490   13.12957308709525   10.31421108826824
C         3.11035209761518   11.19406801203925   12.06767953552837
H         3.28984574452757   10.15788075338649   12.38614088686162
C         5.52161343889137   10.94686767663138   11.68778089869564
H         6.37422019945588   11.52654329449921   11.30201333540153
N         4.35442817949396   11.79078358309546   11.61644981659729
C         2.08025535393286   11.18135958729544   10.93636749393592
H         2.44915323179741   10.61328167403263   10.08448711936193
H         1.89879267325591   12.20934375696624   10.62697907166437
H         1.14946009594316   10.74014877260254   11.28164251140408
C         7.08310845849963   12.46693923240764    8.28368032664618
H         6.91827149232956   12.84342673158394    7.27661447703047
H         6.46233638400886   11.58294593804542    8.42843541958893
H         8.12790107508127   12.17744857371413    8.37254868719351
C         7.57581236000579   14.80702204854994    9.11987208831076
H         7.33167717682245   15.54341434477359    9.88519984936351
H         7.38249063158371   15.24053098180849    8.14128382339636
H         8.63537041066050   14.57190930626972    9.19032658401544
C         5.40631083972659    9.69341873072969   10.80504181138196
H         5.08414034952977    9.97308330513015    9.80177457394431
H         4.68763251667761    8.98590672138362   11.21188635921487
H         6.37258951668911    9.19830548676987   10.73877266271766
C         3.58401084599908   13.44763943093910    7.77369829663948
H         2.83436017565709   13.39048206104096    8.55958123992709
H         3.96372191730821   12.44713974819976    7.57113863210784
H         3.12898550089343   13.84068620872387    6.86844157430722
C         5.87736867107747   10.57225867119728   13.13551866479915
H         5.11927799155680    9.92826891876286   13.57519663634123
H         5.96584412879195   11.47294544658273   13.74245100537246
H         6.82899572170361   10.04580123170958   13.15411925407829
C         2.56352556821935   11.98021921023452   13.26503263567031
H         2.35929092372792   13.00417906208662   12.95255133167539
H         3.28858262501961   11.99655743364312   14.07763455779899
H         1.64388381397707   11.52509980053249   13.62383020217303
C         4.16609590262072   15.76923329006304    8.53030672005836
H         4.96867856677571   16.44268921450037    8.82582062995534
H         3.44633417005664   15.69968661907564    9.34548887200836
H         3.67414750687628   16.17051718076825    7.64832893847860

