86
CSD_code = FUVPET | q = 0 | S = 0 | Stoichiometry = C42H35AuBr2N3O2P | MND = 2
Au        7.74398353472452   14.55033188074814    4.68787881165139
Br       13.30936774566177   16.73785718478417    6.42603239457091
Br        4.45348607250926   11.61647871394241    8.88701165453225
N         9.68401057539692   14.99306988047385    5.83677349105082
N         8.97174613379766   14.18638333567307    7.99470079715364
N         7.14939641601316   13.54620145781149    6.54185448872724
C        12.80503643190577   15.07635512903962    9.40102007145041
H        13.55365644998389   14.94972604616347    8.63445232104080
C        10.76945438452259   15.63816080225710    5.43137612393206
C         5.88281986584916   12.59684265703079    8.14058277180819
C        11.63456248743662   15.87563245573078    6.53848534793946
C        11.47157802127884   15.30844897551768    9.04990438037599
C        11.03881898390581   15.36267291844995    7.66999188916707
C        13.17284985856912   14.95803873364289   10.72111171293376
H        14.19717787502123   14.76006474320458   10.99540786155293
C        12.22357121764444   15.07518014987005   11.74004129679266
C         9.78947229760722   14.80685612305083    7.19343951381524
C        10.97952830696586   15.98865631378926    4.03535471427276
C        10.53381331006121   15.44375197627045   10.07419131108814
H         9.50346203025319   15.63629093378781    9.82280336489870
C        11.48051957935501   17.23477055253008    3.66450384273641
H        11.70150499262769   17.97467913080023    4.41803777793366
C        10.89934014556719   15.33593172379056   11.40042346989995
H        10.14187235027507   15.44574125549828   12.16012670437313
C        11.67325491443296   17.53960444364914    2.33058519125366
H        12.06257470279155   18.50834971256948    2.05478839348070
C         5.98721491331822   12.93858659379814    6.76894514503410
C        10.66584955010077   15.06111422307855    3.04097833636598
H        10.29551725016653   14.08828556750245    3.33152367152555
C         7.82676990914911   13.61325604886060    7.73439609337687
C         7.04511603226102   12.99176726510308    8.77394370568086
C        11.37444851286513   16.60921795934602    1.35071823120758
H        11.53589258702581   16.84673378674149    0.30961504233503
C        10.87041209339448   15.37019145328973    1.71061212370043
H        10.65433881849872   14.63732440125704    0.94549464589306
C         9.24727072176724   12.58782606138446   11.75476715206974
H        10.28478510204892   12.40230194912657   11.98525142435274
C         8.35116712257896   12.77733196952582   12.80882958353205
C         6.57682672600341   13.03948833993381   11.21154733790900
H         5.53387317203244   13.23564426401130   11.01460887362430
C         7.46910801153806   12.87968677173490   10.15378281002666
C         7.00765331588562   12.99495097770373   12.52459710031519
H         6.28696938527876   13.14062199879151   13.31406491011106
C         8.81581778255241   12.64513098164985   10.45123716238228
H         9.51858059919444   12.50842212029882    9.64601545072588
C         7.95330594682657   17.06045986325058    0.66829384651955
H         7.66724488395742   16.35206868216519   -0.09511061598382
C         7.79961653598991   16.75005901775081    2.01355900419222
C         8.18396947563102   17.67055752628411    2.98211833380360
H         8.07844922323152   17.40445496198499    4.02665019495920
C         8.70424211060542   18.89583521589245    2.61234735706923
H         9.00009707005356   19.60745075901371    3.36836796365166
C         8.48186497411587   18.28506370261458    0.30239703457204
H         8.60431409694081   18.52422339604741   -0.74389014945662
C         4.58070404549130   11.96163152639826    3.45034846770471
H         4.92847808277253   11.55087013801332    2.51236840985013
C         3.67404060427904   12.96651101274686    5.86855421443963
H         3.31773492473097   13.36914677838446    6.80439426238681
C         2.78600458996142   12.74653728075047    4.83223646082338
H         1.73766255113506   12.96584641246921    4.97046769084877
C         3.23456918276515   12.24440551297093    3.62184873522464
H         2.53728644065323   12.06720595443143    2.81599520362040
C         5.02979188060208   12.69126375691400    5.70173100113754
C         5.47518036191189   12.18697207807364    4.47931438775800
H         6.52153799510764   11.94457483154228    4.36146830867262
C        11.76224580823976   14.95160029582709   14.07156530713984
H        11.28028850489974   15.93167097213280   14.15099735429951
H        12.34623852090431   14.76641106562478   14.97200811841003
H        10.99755332134431   14.17564109477536   13.96851850618700
C         8.03388277631163   12.88026778059345   15.16879563874817
H         7.53647602263003   13.85590788470218   15.17530217929081
H         8.67024061471633   12.79608103391943   16.04854625061256
H         7.27947513173828   12.08782453251843   15.19070034301443
C         7.28899628552815   13.98798777905750    1.27699893068970
H         6.76942831294089   14.30185160673084    0.37153719620225
H         6.86809689072962   13.04369814642642    1.62243149773544
H         8.35041150310650   13.85197410189519    1.07714381560571
C         5.29226058736518   15.55941414294304    2.51392180434758
H         5.05007229072521   16.34658638583115    3.22716694984585
H         4.73937054273213   14.65821328661142    2.78027861340086
H         5.02536089531156   15.88354013572834    1.50689614496246
C         8.85325779153233   19.20341276697441    1.27012503243788
H         9.26506641899161   20.15751311899937    0.97722752044615
P         7.08347845988384   15.19843867063531    2.62702534184783
O        12.68602686821126   14.91701133827263   13.00825077393443
O         8.89230718559607   12.74545548897462   14.06249407062439

