46
CSD_code = FUVVUP | q = 0 | S = 0 | Stoichiometry = C13H28CrN4 | MND = 4
Cr        3.64614156935093    6.34928390228410    0.64979373105057
N         6.66533511243178    6.21747825582408    1.38415783004154
N         3.61819352203975    7.18149464472670   -0.93440410261039
N         3.00415883678183    7.40141912174103    1.70052508052988
N         3.01687683207918    4.74370197824532    1.13364046744960
C         0.79710589678326    5.19226551523658    2.06403071838589
H         1.01046526309964    6.26004228847124    2.07490196336587
H         0.11898581326915    4.95192094413959    2.87874462744743
H         0.31909966180571    4.93237355682929    1.12034249854635
C         2.26818839691915    2.91998165231715   -0.38327710936991
H         1.62132931303590    2.39871512840083    0.31878125234040
H         2.65140291097730    2.19351281220637   -1.09668915373450
H         1.67125802850461    3.65734489498023   -0.92116092409676
C         3.03920771478331    8.47441586203135   -1.26230074628879
H         3.14756912625372    8.67280087475730   -2.33812011807221
C         4.26319891721359    2.60413208505064    1.14894194728645
H         5.08730876566851    3.11945568952454    1.64129658785963
H         4.67071206428341    1.84320808524494    0.48664246312095
H         3.65663669091469    2.11158196081724    1.90537860028922
C         5.53794847268137    6.34894438876057    1.21042196271994
C         5.43570574412221    7.23917641866581   -2.61307310337282
H         5.12684352613102    8.16121143598387   -3.10006904086651
H         5.94861571449237    6.61901140996464   -3.34516093994038
H         6.13060005202512    7.48158490626130   -1.80970379419351
C         2.76407150688211    4.79927137810486    3.56935393606547
H         3.69740831309848    4.25591860362498    3.70414504305107
H         2.09332765123225    4.55846343772879    4.39053401331515
H         2.97756813209111    5.86706796640696    3.57261116702703
C         3.43746583594794    3.61320927477369    0.33563634169783
H         4.11087809677679    3.99627856920779   -0.44759597134183
C         3.23154640859328    6.10447948933092   -3.14413191768579
H         2.37143419802839    5.59077903497261   -2.71337412122215
H         3.70663261507989    5.44340334142856   -3.86576823241123
H         2.87740607530543    6.98674875140048   -3.67270746856693
C         1.54533090754636    8.47786593426403   -0.92183839220898
H         1.02504830342581    7.69102922558990   -1.46726997234632
H         1.10272195446517    9.43585016383925   -1.18281652122100
H         1.43194122166823    8.30696375892600    0.14753187358424
C         4.23216192035409    6.47619755911005   -2.03765507773548
H         4.63804588658127    5.53214728209945   -1.63903380516666
C         3.75357133744849    9.58740108724589   -0.49019683344201
H         3.65373886994306    9.39134732398111    0.57648615812101
H         3.31234262267772   10.55247106319942   -0.72742106095806
H         4.81175764387115    9.60973635035392   -0.74370129959696
C         2.11551178533177    4.43060587857003    2.23154483817563
H         1.89330076800627    3.35410671337744    2.23932660497928

