80
CSD_code = FUWGAF | q = 1 | S = 0 | Stoichiometry = C44H30MnN4O(1+) | MND = 5
Mn        7.62490004772773    3.97116079557721    1.31388926210149
O         6.63897226001450    2.09430549766221    0.63280710555140
N         6.80863259298920    5.14761905531289   -0.06670335614284
N         6.15670454762139    4.43281785162778    2.57323645750982
N         8.62062288345931    3.16042325797722    2.80647737217243
N         9.18272355832902    3.71457743930737    0.10666565254598
C         7.22381933063505    5.32779486884676   -1.36090464480689
C         6.45727548815167    6.35689804016490   -1.99353918474821
C         5.55324171290853    6.78927353990134   -1.08194353565419
C         5.74061261871760    5.99971323288822    0.09768704934574
C         4.87415074943919    6.01093332142607    1.19043031996769
C         5.05297970408705    5.20067974029830    2.31497106608400
C         4.06860871443096    5.01831089146372    3.33923241415394
C         4.58734336126163    4.14033499279229    4.23139595679998
C         5.90345205613985    3.81296969489421    3.77237345555623
C         6.84326972113402    3.08929657144616    4.50659774640820
C         8.15148755532244    2.87816539248372    4.06133457147466
C         9.21293997704509    2.40291874943764    4.89684362085303
C        10.33030746771797    2.37383236027014    4.13221537643225
C         9.94506425737401    2.79366096299055    2.81747430435634
C        10.76813396718470    2.70571014766045    1.69592876291674
C        10.35385328405341    3.07610881329388    0.41325384110944
C        11.08766363855960    2.78183289747061   -0.78120146050169
C        10.36111966808165    3.26076026627981   -1.81946065092749
C         9.19795504362115    3.87861173408382   -1.25840580535298
C         8.29126067780778    4.66192052518832   -1.97192871343609
C         8.50671479909712    4.88030287469627   -3.41296766703997
C         7.50188259792952    4.55848674190723   -4.32349081266587
C         7.69761422899023    4.75526786395927   -5.67773927850644
C         8.88899822373698    5.29189423937915   -6.13837590847817
C         9.88626164382801    5.62962661986942   -5.23804923870095
C         9.70106109027658    5.42153929722040   -3.88373569746091
C         3.67381791807885    6.86476227576931    1.13847082389755
C         2.73940055716870    6.72851607533210    0.11435923207553
C         1.61651385433845    7.53471795597118    0.08233812210248
C         1.41813750085826    8.49200848930517    1.06387344267172
C         2.34395247781637    8.63458423291038    2.08472158788362
C         3.46076558101185    7.82103290611438    2.12964153248082
C         6.48499216782434    2.59583598681477    5.84736992375069
C         6.59942376086885    1.23761566052975    6.13872893278947
C         6.26266768032956    0.76259269429286    7.39245342578706
C         5.82711606279853    1.63712853352755    8.37497041958286
C         5.72563273368881    2.99059808262191    8.09731259612336
C         6.04676156244943    3.46923748453877    6.84044920136928
C        12.11678878554592    2.13057950969118    1.84627052270498
C        12.29633218661468    0.84824253867790    2.36003790490301
C        13.56798226476761    0.32148251527943    2.49185027787326
C        14.67392972852593    1.06995094823729    2.12311602260300
C        14.50319326878901    2.34658628751811    1.61252723355572
C        13.23327353050129    2.87263199026484    1.46506951699080
H         5.67390647660113    2.04043844583642    0.66024845139250
H         6.92881780381214    1.69377412455095   -0.19828560669577
H         6.61722143543522    6.71685801497510   -2.98991138864736
H         4.83103194537788    7.57346860341260   -1.18727674252771
H         3.10441269203792    5.48538448480172    3.35393106997360
H         4.12767555095543    3.74663140936881    5.11538240220380
H         9.11434641656781    2.15807760980533    5.93532331660709
H        11.32492543499751    2.10260660659666    4.42376164513710
H        12.02202978273059    2.25858345946082   -0.81373663229642
H        10.58465032776008    3.20337680945158   -2.86564090688175
H         6.57429614906102    4.13660067182614   -3.96413155839069
H         6.91725482078996    4.49149561281700   -6.37518289897550
H         9.03768330326151    5.45074103723881   -7.19508844414247
H        10.81141584386870    6.05877326541947   -5.59120911514286
H        10.46994385005843    5.70436624754059   -3.18012275593584
H         2.88656691477477    5.97239293049684   -0.64323502702429
H         0.89417623273997    7.41481751488428   -0.71065418625403
H         0.54365582419654    9.12324890654350    1.03454515139494
H         2.19526661434909    9.38117396846942    2.84979011373218
H         4.18790152476883    7.93692326544983    2.91975044575550
H         6.93425330398836    0.55692111228238    5.36962189729467
H         6.34328566970935   -0.29268597441368    7.60424945083122
H         5.57203360358820    1.26561758866862    9.35527051364906
H         5.39745187373604    3.67693478713497    8.86289403784277
H         5.98822134003785    4.52704615830914    6.63046904501456
H        11.43277421079589    0.25910187830273    2.63235688131704
H        13.69579964463417   -0.67637802160865    2.88288489758445
H        15.66558353521341    0.65873394189443    2.23091358474801
H        15.36194081678546    2.93451209926007    1.32653536201044
H        13.09906796771209    3.87111099605840    1.07571789636027

