68
CSD_code = FUWQAQ | q = 1 | S = 0 | Stoichiometry = C32H29N6Pd(1+) | MND = 4
Pd        2.24556040084432    3.35961657944157    2.47852159807876
N        -0.02902364375009    7.80517355881447    1.27793142113002
N        -2.37302936073178    8.48089493881401    2.25348155169247
C        -3.60618582905259    8.42948295799037    2.85694761282801
N         4.02617915192557    3.82322540284282    1.70988152037841
N         1.84183049062231    5.48521661794997    2.18791335432857
C        -1.89908718759242   10.85767120200308    1.82350515963253
H        -2.86330198683803   11.19155273488906    2.16674317093704
C         4.20897450252460    5.15715465561869    1.70078841421419
C         1.10541955357539    7.38733057601730    0.76733268200096
C         1.34740336883134    5.89975673187385    0.86042531235442
H         0.40168558879697    5.37610957459684    0.68152951572061
H         2.07789156082455    5.58609029185729    0.10669612070356
C        -4.31155357355770    7.19792723449660    2.67467075763631
C        -0.31882835589874    9.11602710819044    1.28299865403821
C        -1.58355788437397    9.51209335194739    1.82470801814450
C         0.85269892414722    5.71530873641204    3.24948623791656
H         0.29155452978181    6.64271832915298    3.07315738164221
H         1.37097443973925    5.79916315782252    4.21446418644937
C         3.19371462416318    5.98937730543943    2.46099770525831
H         3.40659785140759    5.86875621205688    3.53379760582361
H         3.29965101484387    7.05299355014318    2.20715194056984
C         2.69976131246099    1.41120561832644    2.94502848568863
H         2.14174421176389    1.08821103464103    3.83163959931509
H         3.76980767773800    1.30418704941651    3.15828040210706
H         2.43489254175020    0.76360390648562    2.09614864363337
N        -3.70737937628130    6.23111035884013    1.95470740087917
C        -6.25599465764599    5.80614678827476    2.99673241882122
H        -7.24107317106453    5.64334935338678    3.40974242745348
C         0.57924797658489   10.08823531427707    0.76727737610898
C        -4.34943382150030    5.11303226947942    1.74384410648458
H        -3.82357609735235    4.37190818066365    1.15388568515974
C        -0.11486232585020    4.55140658425816    3.34800748358170
C        -5.43805629900206    9.22039813642278    4.21841049095560
H        -5.85070716421555   10.01068810408609    4.82695359289979
C        -0.99797443996761   11.80562551922822    1.32915802424593
H        -1.28601329810873   12.84578000607781    1.34658987373484
C         2.05251589472405    8.26641964952371    0.21078180231772
H         2.96028292258104    7.87843352524448   -0.22842506789376
C         1.78676174795122    9.61086627435323    0.21625504765137
H         2.48838576887801   10.31687307151365   -0.20392360346401
C        -6.15320537091459    8.07142573503130    4.01445284388986
H        -7.13633475378508    7.94399867298931    4.44063235344470
C         0.22063131058005   11.44684258377268    0.81466499157302
H         0.90447742186615   12.18794584977880    0.43124586019299
C        -1.43943134895798    4.76670298265842    3.70073744535794
H        -1.79283831991395    5.77027043982228    3.87370378620282
C         5.28218335576133    5.73593620297339    1.04154328702840
H         5.40851419428847    6.80726729176501    1.05700609509582
C        -4.17138470443406    9.40519786087126    3.65166398517079
H        -3.63458998755084   10.31412950274587    3.86660606141156
N         0.35865770623117    3.31187955389381    3.12280459205597
C        -5.63684292386110    4.84921216543857    2.23772408140380
H        -6.11457336465425    3.90692191378210    2.01972181784021
C         4.88306428828150    3.04763162609988    1.04951983587828
H         4.69142343885208    1.98233258320564    1.06972902485404
C        -0.47525351963639    2.27617670277632    3.20491840652912
H        -0.06113145353364    1.29898138453586    2.99228305734490
C         6.18670925892795    4.92686477321974    0.36923072809379
H         7.02960162520629    5.35914834969387   -0.14625367221745
C        -5.59951749608789    7.03049531418473    3.24420474306514
C        -2.29860245244969    3.68616896212597    3.81847787104011
H        -3.32831886693433    3.83590496517125    4.10154085095099
C         5.97699473980390    3.55789583553944    0.36853153616188
H         6.64787551371768    2.89171518776655   -0.14828470412212
C        -1.80817280876954    2.41795397635245    3.55264336554631
H        -2.44234795632512    1.54903652580972    3.61605759388499
H        -2.09208510936446    7.57574150512972    1.87877005116554

