47
CSD_code = FUWREV | q = 0 | S = 0 | Stoichiometry = C18H6F12MnN3O5S2 | MND = 6
Mn        3.40870333079398    4.26492946311525    3.72225083532456
N         2.32018473820370    5.64009088375630    3.10077590323093
S         1.05353013838122    5.58733284659812    2.01054114505834
S         0.74109412938799    7.69671884763682    2.10943381200672
N         1.96263470593576    7.94875733517620    3.12124551961330
C         2.63514818566828    6.91490226550865    3.50787403989761
C         3.80985449417829    6.92314675442699    4.33212326001810
O         4.36391368856762    7.96416398516741    4.94894772654064
C         5.45214506217394    7.45075989155041    5.58543948830019
C         6.39080248582739    8.08519483912002    6.38051631941103
H         6.33134819628826    9.14169556483402    6.58149962946051
C         7.39505293902320    7.28824431189883    6.89768178199529
H         8.14936282829357    7.73697508885319    7.52499631045440
C         7.46022070340024    5.91695321857665    6.63544704678513
H         8.26238436129044    5.34031842763862    7.06873806314022
C         6.52779833326410    5.28128214143166    5.84193666663500
H         6.56936806139320    4.22267001237129    5.64644711486009
C         5.51127888444791    6.06770224243072    5.31033440599997
N         4.44259724964583    5.77605469295964    4.49611981792349
O         4.51576948253387    2.88274156196407    4.38050964956724
C         5.34873253045089    2.17739010531472    3.74367221679393
C         5.77714086700213    2.38799110827897    2.43474748620039
H         6.51547025430129    1.74617360358861    1.98649695749100
C         5.24337627023616    3.46054948917967    1.71268320014399
O         4.39041926835136    4.29491771878690    2.12265156580973
C         5.98071675522628    1.03917044620672    4.55599353786781
C         5.79570381361638    3.70144582330493    0.30129863780957
F         6.60790534588285    0.13432645597757    3.80029766032017
F         5.07369455131268    0.38868869184143    5.28686070244049
F         6.89786171488614    1.52403862692097    5.41439217422566
F         5.81090152799957    2.58690281276132   -0.43767471432595
F         7.06573517200634    4.14525572249942    0.34312287774431
F         5.08795286885137    4.61485222832210   -0.36215929631971
O         2.46530016759984    4.18068602244128    5.41242467633673
C         1.56949776501830    3.34324417640362    5.71905056952225
C         0.98094386255034    2.38550915641700    4.90138535040279
H         0.21599875550607    1.73735022666740    5.29459655228757
C         1.38391829437760    2.26023439339540    3.56435636877513
O         2.26619693053404    2.92641201683625    2.97097027689673
C         1.03274334457698    3.44346822948952    7.15685148546647
C         0.61533097780937    1.25248900367713    2.69389312054457
F         0.96983582183163    2.25306838640807    7.76267673327246
F        -0.21686172756671    3.94288045330350    7.17025344655539
F         1.77785429392549    4.24287744041377    7.91722371007791
F         1.32938214022482    0.85249515156572    1.64377600985290
F         0.24692756369711    0.15973341736328    3.37013379211217
F        -0.51487112909363    1.80491471762411    2.21446636542916

