73
CSD_code = FUXMAM | q = 0 | S = 0 | Stoichiometry = C28H38N4S2Zn | MND = 4
Zn        3.19522372256153    3.36656198241608    0.61789127821771
S         3.01157393544705    4.83982050722259   -1.18243400019171
S         4.08146239488445    1.23122810496842    1.08817807724516
N         3.52184445693018    4.58218869969350    2.36335322528347
N         1.12035501605537    2.86500762025598    0.95487556615637
N         3.74669267631051    5.04295380837603    4.49437394311630
N        -0.71080524128739    1.84977987955777    0.30378560872116
C         1.59434467829737    4.04261644154452   -1.89356602541468
C         0.35278916126875    4.68344991413855   -1.84846916538471
C        -0.75908557704180    4.03923831154609   -2.38990862462357
C        -0.61515699571976    2.77630835505092   -2.94090500050359
C         0.61677802957616    2.14272486657024   -3.00141660527773
C         1.74543386828238    2.79168766334455   -2.50387659015594
C         0.19660351157570    6.04350822834930   -1.24038584043329
C        -2.10664742582965    4.69917566669884   -2.37138385276135
C         0.71469983541248    0.77064171937176   -3.60464515527927
C         3.09960245499778    2.16122150602730   -2.61863209390961
C         4.51632462714509    1.56783847930622    2.77084968057708
C         3.66418642298309    1.15073493910803    3.79829924133638
C         3.99889062150958    1.44955445200897    5.11825969981252
C         5.16570252164590    2.14800876123201    5.38526036710037
C         6.02426666629400    2.54494113212442    4.37195203662577
C         5.71446776858058    2.23487487884555    3.04901369742527
C         2.39788509051995    0.40395908957479    3.50373696933360
C         3.10353302500024    1.02944820404345    6.24813260001990
C         7.27294461367305    3.30637183702028    4.70887174655605
C         6.64875028254165    2.62892033554142    1.94668779106591
C         3.09472474730322    4.31669484404803    3.57550983779787
C         4.64289273909512    5.82069029252493    3.82007188253262
C         4.49244218750893    5.52416885564254    2.49898151676874
C         3.54407742276319    5.02745344498680    5.91457007339057
C         0.62633938824067    1.80256477541255    0.36140342256431
C        -1.09074119996503    3.02017426273268    0.89302650748837
C         0.05569428476036    3.63968271780725    1.29031363843836
C        -1.58559424482678    0.87615468838408   -0.28266558580817
H         1.12942001305195    6.35463281787911   -0.77899026947785
H        -0.27757524135182    0.36705980487718   -3.79714508338922
H        -2.85144954110859    4.06722281208071   -2.85088115579993
H         3.86347127026713    2.93494560379115   -2.66580104587180
H         2.33775208865341   -0.50133768022541    4.10570847925788
H         3.05765104081385   -0.05732099561440    6.31538586373532
H         7.29751903773121    3.55297500153535    5.76860679025159
H        -2.19703271762712    1.34430944979881   -1.05485469834402
H         2.96372612259888    4.14768144586159    6.18520051315133
H        -1.48327879285014    2.27865354985876   -3.35520832499717
H         5.42008517130187    2.37642458754041    6.41245057636977
H        -0.59297343551168    6.04571616797762   -0.48908173398005
H        -0.06579752441203    6.77090907619310   -2.00853789076429
H         2.36897599359506    0.12901300151009    2.45347608728249
H         1.52151999923577    1.01696596023753    3.72542042762968
H        -2.07271462224022    5.65129165385354   -2.89925885817359
H        -2.42767813537816    4.90219743661729   -1.34898080564097
H         2.08518800073332    1.39066680881158    6.09959471474653
H         3.47571838593700    1.41217360313183    7.19634479761041
H         1.24825126874086    0.09003688646619   -2.94226311968986
H         1.25359544758068    0.80358000685612   -4.55161803862601
H         7.33085104049730    4.22836585517083    4.13094673367911
H         8.15864370588781    2.71397359414380    4.47962303342752
H         3.17212938979705    1.54728176493678   -3.51248781192227
H         3.31600564160130    1.52992570679772   -1.75258480341137
H         2.32476265400639    3.61011423237349    3.80773284019038
H         1.21502317635562    0.98919641823223   -0.01291249206815
H         5.29739137688320    6.50134688611343    4.32392079774680
H        -2.11885271229466    3.30637736731632    0.97631934854647
H         4.99410671788372    5.92650453991160    1.64201903890787
H         0.19080979492230    4.57935143998285    1.78605677736263
H         3.01077953288266    5.92614923762070    6.23600522594446
H         4.50681964502149    4.98797685484200    6.42422170256789
H        -2.24049329951315    0.44426775662431    0.47746007096559
H        -0.98927640606511    0.08607869023325   -0.73410922444913
H         7.68315352527583    2.45221850305739    2.23381981255365
H         6.53708867807465    3.68846676138094    1.70677314051370
H         6.43248824372586    2.05265812847515    1.05031871631995

