49
CSD_code = FUXNIV | q = 0 | S = 0 | Stoichiometry = C5H26B17Co | MND = 10
Co        0.83199618675981    0.44719692868878    4.17608689884119
B        -2.15975713145719    0.09217521503949    5.44082003142697
B        -2.30635322883847   -1.06466754814150    4.15807483511903
B        -1.22882803059893    0.36548003589387    3.93190687537043
B        -0.62622957431091    0.93453023475501    5.53866085115076
B        -2.09563041239699   -1.60299365789704    5.87235457423829
B        -1.34056561576830   -2.45601205198860    4.41964400612160
B        -0.67030926469228   -1.16706227952517    3.32722074701460
B         0.65203444674652   -0.03639342231007    6.21689501063937
B        -1.03931217250205   -0.38573220312705    6.74928994849216
B         0.10078432089098   -3.76488605014783    2.29322530928510
B         0.20961818765957   -2.73839610106690    3.71966390084058
B         0.30199370103587   -2.00167934547903    2.10517273996757
B        -0.62628388771787   -2.97934146604221    0.88185645034377
B        -1.01390426136673   -4.08035507191265    3.61356569392827
B        -1.15167286767546   -1.36064805269545    1.43797409395967
B        -2.31450883410707   -2.69295170312944    1.06579965070910
B        -1.55980390029337   -4.18764782340769    1.86507977457663
C         2.59189191560079    0.57572115951176    2.91516782599408
C         2.85992639399048    1.22666548069797    4.13772650597881
C         1.96218806301579    2.30242026239144    4.27983060993831
C         1.09174513994680    2.27813208020300    3.17616102709744
C         1.48845805932281    1.21277632770676    2.32567844961203
H         3.18526809802255   -0.21020317246608    2.48074048406632
H         3.68538283766327    1.00959483103232    4.79619712617204
H         1.97705184425983    3.03795621105981    5.06477013259725
H         0.34999017011289    3.02177172165891    2.94324195810672
H         1.09040084284335    1.01260331354550    1.34647280899542
H        -3.10956006543414    0.70012978758608    5.78460922354133
H        -3.34489163281931   -1.11053788844480    3.59006712619041
H        -1.61816832861060    1.20088679969799    3.19161668117835
H        -0.66732503215729    2.08153747535729    5.80969205445397
H        -2.97798800024043   -2.13227040763313    6.45395606812283
H         1.42687102363398    0.39272190665001    6.99700711080781
H        -1.32297903525516   -0.09250315234262    7.85706817271407
H         0.94281122207399   -4.57028052614155    2.11440792056455
H         1.17334588516031   -2.82685786228044    4.39903576432241
H         1.31819959628084   -1.55141800472298    1.72786578296043
H        -0.14821484633123   -3.18698693375929   -0.17459583648905
H        -0.89743592713782   -5.05246127849825    4.27726049594894
H        -1.13996341072082   -0.39972675895881    0.75746450584076
H        -3.09306238887861   -2.71047139956218    0.18161587350698
H        -1.84039218365203   -5.24656877119534    1.42597449052384
H        -2.08071958715977   -3.47404148997990    4.04533748598795
H        -2.42043769672780   -1.58910479223778    1.71371341898155
H         0.05789954585629   -1.06852991798163    6.79631726525365
H        -2.70720192638203   -3.52283866745778    1.97777400896756
H         1.21712260238476   -0.62362702714757    5.25203671541282
H        -1.15848084002673   -2.50870494378995    5.70119735062580

