62
CSD_code = FUXNAO | q = 0 | S = 0 | Stoichiometry = C28H28P2PtS3 | MND = 4
Pt        0.69421396942021    8.03304137191803    8.24766815665889
P         2.27380433389779    6.42636625701422    7.81618574195482
P         1.97533738281497    8.53297876980614   10.09520049063555
S        -0.46261186096039    7.48312908367395    6.26911171757153
S        -3.15822636793655    8.73748477553019    7.04973126045442
S        -0.84671926895581    9.67133015916918    8.85697789959616
C        -2.09629790627986    7.24912022295400    7.00692741801258
H        -2.63348838583125    6.52213122622370    6.40067902561218
H        -1.98351419018273    6.87794486638582    8.02800680376983
C        -1.87459819565797    9.98345073526929    7.40622444267902
H        -2.41304041904149   10.91197338428997    7.58577633451968
H        -1.24680984395947   10.06642190292112    6.51907592701176
C         3.70927819545598    6.73992919826531    8.94820226224091
H         4.36314595728264    5.86429171238193    8.99835697949649
H         4.27714587924206    7.56072636132138    8.49421782030556
C         3.20078255605674    7.16197072834453   10.32248955662500
H         4.01932630175715    7.48993586190784   10.97136910958944
H         2.67568495679981    6.33005158389368   10.80132842568709
C         3.08437947752783    6.33816386617224    6.19609487474470
C         2.90608418913941    7.39395873966487    5.31088103404908
H         2.25324828356231    8.21097501985901    5.59423949363956
C         3.52995429526173    7.37336309878991    4.07692020163479
H         3.38522140654177    8.18909521708383    3.38467056254078
C         4.33283446491937    6.29982149985242    3.72779013787012
H         4.81786659025504    6.27998460600218    2.76302002242914
C         4.50868933384290    5.24360122062828    4.60854771698906
H         5.12948696427492    4.40481180062793    4.32912119284600
C         3.88570471284405    5.25762744035430    5.84241083132312
H         4.00821334918775    4.42997381710997    6.52788365245678
C         1.78174342140773    4.70106733080449    8.09393869170436
C         0.82223834011387    4.21110051593368    7.20769172525368
H         0.45493157177349    4.86342477219814    6.42509468485984
C         0.34818326849628    2.92102678278109    7.33807771882767
H        -0.39297125389192    2.54604334258477    6.64806648902879
C         0.82105027860080    2.11007912254037    8.35886704303305
H         0.45036805706525    1.10136016487382    8.46482794491538
C         1.76534778505579    2.59554257721655    9.24715286643837
H         2.13104616082875    1.96533456377163   10.04513063204094
C         2.24538949348486    3.88817885665086    9.12161020272188
H         2.98300433138273    4.24868683945858    9.82406151211431
C         1.45182957524863    9.00186859082289   11.76311795123594
C         1.54155422937523    8.16065565198666   12.86692466760759
H         1.97787080017364    7.17679428648545   12.77427381521249
C         1.06820848538094    8.58607041046298   14.09584575825988
H         1.14434102992126    7.93335682752884   14.95345215032985
C         0.49209011766450    9.83848175544006   14.22713553831288
H         0.12075555005271   10.16216289021647   15.18812055668808
C         0.38211762594920   10.67116235739572   13.12379640604557
H        -0.07840828551907   11.64268922036546   13.22239955872133
C         0.85621544456896   10.25582014593907   11.89522316704193
H         0.76250906265301   10.88726643673375   11.02238562933115
C         3.06257581158117    9.90677099766495    9.61480192396784
C         3.97029462591503   10.47415735665534   10.50288975159847
H         4.01845082072247   10.11900438797881   11.52364424911153
C         4.79428373958263   11.49986213081770   10.07787213116464
H         5.49751513203717   11.94515011209041   10.76639548755264
C         4.71730399548688   11.96058932847907    8.77225892175819
H         5.36226311963146   12.76375601612795    8.44780152036624
C         3.81041631991543   11.40083164744456    7.88677282979695
H         3.74612606369244   11.76696432678667    6.87300173775025
C         2.98281062000855   10.37690616356564    8.30890273845229
H         2.24304849717915    9.93377956846108    7.63825490316381

