93
CSD_code = FUXSUM | q = 0 | S = 0 | Stoichiometry = C54H32O4P2Ru | MND = 6
Ru        4.64986158822957   11.81555131273715    3.63602864900717
P         2.56096966664788   12.36075506377949    2.89072212280706
P         5.60210431794400   12.59524394536683    1.71500998719548
O         6.41744257271947   10.86847238014148    4.31464815219144
O         4.96458636373699    9.81138247787475    3.08851558887165
O         4.62460935044242   13.43250854851122    4.98150322267916
O         3.95172211103324   11.45938271261016    5.60452314987442
C         2.41118629135659   11.92542462275027    1.12738713368071
C         1.83133994132167   10.70311713362458    0.73599215745230
C         1.81210033400752   10.33111780235754   -0.57643095880446
C         2.35994699958854   11.16551628638632   -1.57216302148314
C         2.34579207636616   10.79886559264482   -2.93356716173205
C         2.86498270621658   11.62744591125706   -3.88733831209980
C         3.42538645550216   12.85899770690983   -3.51762460624484
C         3.46414084989045   13.23869460537817   -2.20568713974910
C         2.92992201692323   12.40936293517866   -1.19509546898628
C         2.96482419121355   12.77069897372731    0.17925374249675
C         4.77745999317066   14.14139971387415    1.21211525241202
C         5.32963895046822   15.39033503896271    1.55742465720102
C         4.66653375181699   16.54762858978518    1.27108604948442
C         3.41871152283404   16.52208407073457    0.61517616744436
C         2.71959988425195   17.70800047373987    0.31055651516534
C         1.51745080621928   17.66554863714343   -0.33660937474486
C         0.96103221874866   16.43136157316770   -0.70339601099616
C         1.60902280044948   15.26372954604172   -0.41424051497525
C         2.85699630596667   15.27192439448480    0.24680094048822
C         3.55037533386093   14.07410968152881    0.57197488080579
C         1.79891018296973   14.00996750521463    2.94480545339368
C         0.55763888642426   14.18709631906446    2.33588944246515
C        -0.05123162840898   15.42652363081653    2.36220835331362
C         0.57484512871691   16.49457336694709    2.98609014744040
C         1.80894295861658   16.32116340935576    3.58868470305707
C         2.42293102609848   15.08089912396516    3.57247329999219
C         1.41605531927756   11.29524424153376    3.80971192952523
C         0.28735217229544   11.76485589126430    4.47323126278223
C        -0.46219168808456   10.89852229056876    5.25101565169438
C        -0.08840005697839    9.57187116925747    5.38027123088308
C         1.04785956308483    9.10456354247060    4.73716564200302
C         1.80470592700839    9.96198996636357    3.96262967549470
C         7.31603681147497   13.02201184497205    2.13008625319660
C         8.41781920400040   12.65038317640993    1.36704920467559
C         9.69479757737889   12.93623735215135    1.81984439658191
C         9.88060789968495   13.58015336350997    3.03128196415498
C         8.78532143793790   13.93449774227249    3.80433411647664
C         7.50751794193210   13.64996850569795    3.36317616746018
C         5.71265185196102   11.69268425437481    0.14174978403263
C         6.19970830579262   12.35847103094327   -0.98156508706633
C         6.29305243256819   11.69354533350219   -2.18875815685430
C         5.89266157541406   10.36984910374531   -2.28521195717862
C         5.40499557382331    9.70822646214067   -1.17116614626717
C         5.31701547927127   10.36433866156122    0.04428483177264
C         5.99948558247375    9.79636517826842    3.81756855416376
C         6.73086083960025    8.55482879915255    3.99119660632273
C         7.76210218711329    8.05144443378616    4.82073350987063
C         6.82249763923065    7.04508661514989    5.11873291840430
C         6.49741089515400    7.17593484160093    3.75233029851647
C         4.20766949325554   12.65271055613917    5.88659314303451
C         4.02640070534676   13.15882031457027    7.23649478916411
C         2.68521633186099   13.99473784126076    8.26481380301513
C         3.34574748893228   12.75846280794453    8.41137567614944
C         3.95899067648960   14.43685645280924    7.84871566534756
H         1.39444586159107   10.06540579613753    1.49028374637230
H         1.36926644118546    9.39092133648691   -0.87160437623730
H         1.91248372760276    9.84754096006630   -3.20637676790974
H         2.84754041796621   11.34184600322322   -4.92855092217634
H         3.83225899405091   13.50637972950415   -4.28014905180631
H         3.90363855134355   14.18465281008654   -1.92839043637840
H         6.29119376348403   15.41950924547744    2.04858213945684
H         5.09290824055805   17.50306561078146    1.54039046131138
H         3.15685804433635   18.65259391496163    0.59987423243357
H         0.98864444462924   18.57780776098726   -0.56918797701450
H         0.00988913028008   16.40957546856771   -1.21418380224821
H         1.17031582461063   14.31784804617535   -0.69298343304124
H         0.08155590089846   13.34932532742133    1.84325808998441
H        -1.01478200811608   15.56266108035855    1.89377453535073
H         0.09750586853237   17.46286692895234    3.00122134340202
H         2.29550810533494   17.15274163975824    4.07553632793296
H         3.38830270979519   14.93901973022378    4.03814178943884
H         0.00096201106098   12.80408890304986    4.39521743095837
H        -1.33471326074622   11.26813877894871    5.76917563163149
H        -0.67204777322036    8.90476419497077    5.99691935591240
H         1.35316077158490    8.07544128838510    4.85502397794319
H         2.71270504914084    9.60988622986628    3.48430915911646
H         8.28203501854474   12.12986859955319    0.42976054159260
H        10.54850059968649   12.64302450737616    1.22656068810734
H        10.87980504464395   13.79195808277501    3.38176018049668
H         8.92990934591596   14.41888799114091    4.75857636717346
H         6.64775197229584   13.89930830491785    3.97652147591952
H         6.49629700655067   13.39595856046478   -0.89969217760657
H         6.67432778393624   12.20803608085155   -3.05844038619449
H         5.96113486682078    9.85574752431796   -3.23221920349000
H         5.09286768788385    8.67755799960730   -1.24755258325316
H         4.93544473531773    9.85632670549643    0.91934071613031

