26
CSD_code = FUXWEA | q = -1 | S = 0 | Stoichiometry = C12H8OReS4(1-) | MND = 5
Re        5.80446093029511    5.71708229128689    8.26576158690656
O         4.69162308046552    4.47874200653035    8.42038988134548
S         4.61208381431729    7.73061669260187    8.39640698223027
S         5.97614846597021    6.20062309497239    5.97859600126700
C         4.16951972149660    8.10964604023550    6.74495553958491
C         3.23701697396409    9.10934008773870    6.48887599182666
C         2.90153350982765    9.43009886741644    5.18852432277712
C         3.49884681093248    8.75948784895727    4.12930518803300
C         4.43033858842690    7.76988257149627    4.37295189007695
C         4.77060522561174    7.43513707396894    5.67934230114372
S         6.54317334376283    6.24676862194416   10.42549779881072
S         7.90862903161072    4.71742871642092    8.00833439638665
C         7.93455618971015    5.21938091247867   10.69941288721860
C         8.46431156528794    5.09649453357457   11.97961420068941
C         9.57560309727632    4.30707334242655   12.19893949480931
C        10.17386494666954    3.63674233640326   11.14007794808311
C         9.65940725864582    3.75741126155148    9.86448103389142
C         8.53641773843809    4.54513176553819    9.63413749474512
H         2.78425944637397    9.62190877381925    7.32449110540763
H         2.17175241684182   10.20464787374681    4.99743872998697
H         3.23535149900815    9.01038017818612    3.11113530186360
H         4.90626426342630    7.23996809269531    3.56138914931692
H         7.98809559148530    5.62705044090765   12.79054295202693
H         9.97851353016063    4.21217896306092   13.19780806621494
H        11.04387755750079    3.01830712368583   11.31233074527823
H        10.11364540249524    3.24567048835364    9.02925901008037

