100
CSD_code = FUYBIL | q = 0 | S = 0 | Stoichiometry = C40H52N5O2Ta | MND = 6
Ta        2.71872473488119   12.71985888425346    3.22273681926775
O         3.24103537036547   10.88861510919118    2.03760031416323
O         0.80676599205218   12.14936883443078    3.00308816515711
N         2.79451629099291   10.61333724528917    4.15243161710263
N        -0.61946301276136   10.74057531298826    4.10479951815377
N         2.26298859561455   14.10646475304406    4.58930903617130
N         4.67681042123204   12.96380181812338    3.54189823118034
N         2.67359492804919   13.76681722693419    1.50806580772113
C         1.31640710455059    9.12166951650180    5.44653577763609
C         2.39837487715366   10.01214339712729    5.34442619519948
C         3.04296518005978   10.45140528817366    6.50541265649572
H         3.87399871668501   11.13719769477020    6.40570109987906
C         2.63389189225560   10.01358136371478    7.74798991797012
H         3.14845522081646   10.35053175241045    8.63613680033711
C         1.54932170662433    9.16171167399308    7.84991375328649
H         1.20543403462535    8.84024974954608    8.82236027324343
C         0.87956606811771    8.72494268011553    6.71437015850311
C        -0.32817190281119    7.85076090586995    6.87583441018406
H        -0.87462328366997    8.13138906698176    7.77426858451206
H        -0.03280035180881    6.80622756333834    6.97666030219956
H        -0.98732893492664    7.93719628915371    6.01608174089985
C         0.59427516538027    8.64543338631618    4.24194201331102
C        -0.28086970713619    9.52113184484295    3.57140373863448
C        -0.99312249020649    9.05291554101656    2.46400357718561
H        -1.66942757304471    9.73046204594014    1.96252125103582
C        -0.85249608717603    7.74850571124278    2.03828344202472
H        -1.41337929859276    7.40021430575423    1.18228047223771
C        -0.00367890428101    6.88848584351110    2.70939781077820
H         0.09990570372203    5.86301996075019    2.38515043572345
C         0.71902458904682    7.32626184530927    3.81234236751186
C         1.59335207968508    6.34294503694434    4.53444818567801
H         0.97747256982406    5.66670440824165    5.12856098844680
H         2.29562387352932    6.84131915082592    5.19699823220752
H         2.15131376588737    5.74186073038068    3.82026647386682
C         3.11998844470169   10.07667161564137    3.00564105135949
C         3.46611681814888    8.65146793506009    2.75855505021652
C         4.42535605681067    7.99634588868401    3.53733366704475
C         4.78085544112495    6.69513971656945    3.21254693157210
H         5.52251009622815    6.18861730895951    3.81475296331500
C         4.21542113030563    6.03088682608733    2.13420683454847
C         3.29944338307834    6.71293590008466    1.34844874875895
H         2.86871926304828    6.22223716329099    0.48688379860890
C         2.93022607551939    8.01957381288443    1.62950070271212
C         5.12826939962323    8.66367587320178    4.68188925912787
H         4.60525415789811    8.46978489413460    5.61911162177014
H         5.17628967802432    9.74071868828427    4.53937705379474
H         6.14064320819203    8.27383313948254    4.77536736567257
C         4.60963393879901    4.61762265890374    1.82680375643934
H         5.68274344951289    4.55219485746328    1.65098114108643
H         4.08983838104450    4.25071097016172    0.94537105073810
H         4.37188373915068    3.96646862372052    2.66768593121199
C         2.00217642876247    8.73372159420954    0.69746892338617
H         1.33077427994549    9.39879494128753    1.23412091138448
H         1.41218042004034    8.02189172293709    0.12452798137553
H         2.58543865457627    9.34206745579365    0.00561818352347
C        -0.17059534178814   11.90040370134620    3.82865383418866
C        -0.84374171776020   13.05277088230574    4.50290381375221
C        -1.14835316443452   14.20860744763670    3.77518263500594
C        -1.75653791641650   15.27936172588991    4.41673692116711
H        -1.98492554942587   16.17074933525347    3.84824503355662
C        -2.08187168784446   15.23321436424978    5.76227723821517
C        -1.80152292211278   14.06931522365877    6.46247405522724
H        -2.06267174026169   14.01159050451071    7.51032885383119
C        -1.19563803727003   12.97708940014535    5.85814391992361
C        -0.85608535056312   14.32581229578826    2.30966539341979
H        -1.41997147070884   15.15024442468508    1.87673134472837
H        -1.12219459406566   13.40824101316019    1.78973439450010
H         0.20766462814555   14.50516016481548    2.15401841180391
C        -2.74708486538371   16.39356539748270    6.43909126131021
H        -2.55420289933629   17.31996729851427    5.90314085852680
H        -2.39589782402411   16.49727626887626    7.46362191424351
H        -3.82586976328825   16.23776449285466    6.46948405788742
C        -0.93293510996472   11.75691659360344    6.68427996096008
H        -1.06800030336676   11.97509033898377    7.74173873711267
H         0.07395327463786   11.38218408685129    6.52509495245219
H        -1.61949225474140   10.96358251528117    6.39730007960117
C         2.08519965775184   15.52338390207516    4.35014919910522
H         1.06567157725572   15.83501052771643    4.61284259337009
H         2.26173882980146   15.73935089378067    3.29947125052056
H         2.78250342352588   16.11840495302112    4.95635672595821
C         2.03175785253233   13.83103606224924    5.99218467764120
H         2.76731839767579   14.34731404682501    6.62717114285480
H         2.10268132499469   12.76042060686436    6.17799415083759
H         1.03724713249193   14.17519670427739    6.30085986895906
C         5.70004160294492   12.36111109694254    2.71062435740351
H         6.40317321888051   13.12254842625252    2.34631962176144
H         5.24400807503963   11.86599222408761    1.85749627205816
H         6.28506843597750   11.61944495944086    3.27394052323034
C         5.33987329804305   13.64032650628845    4.63686349256648
H         5.90426970563950   12.93006845534314    5.25904766837283
H         4.60670547316714   14.14456669042329    5.25785510779322
H         6.05626681302942   14.38553606146191    4.26400988617251
C         1.94191872863030   13.26565100696041    0.36700121481441
H         1.51317134009812   14.08222163639014   -0.22695045555774
H         1.14079178953191   12.61530531703030    0.71023164467916
H         2.60653319750758   12.68216440919571   -0.28662082049590
C         3.69917495040033   14.68542525651180    1.06665571162362
H         4.40183879805233   14.18967471707287    0.38162779067960
H         4.24948960880996   15.05977304422284    1.92784492498401
H         3.25911159872197   15.53679749529234    0.53126268361379

