100
CSD_code = FUYBEH | q = 0 | S = 0 | Stoichiometry = C40H52N5NbO2 | MND = 6
Nb        0.76052601275355   11.65003121876813    4.47528821310463
O         1.29259029129896    9.81739840633581    5.72009015042501
O        -1.14164022631582   11.10008976752579    4.69729952798183
N         0.86288199379933    9.60542915066216    3.59322609240285
N        -2.54952263249901    9.68366084626745    3.59152213895979
N         2.70135261025528   11.91875740887538    4.16721208005778
N         0.73568400243897   12.64738743729982    6.19582472389287
N         0.32060834264569   13.05367380250874    3.14651440766604
C        -0.57720850515093    8.12213680693716    2.24939186996877
C         0.48058636730571    9.03910681719583    2.38326967294113
C         1.12106456838974    9.52728571032167    1.23823160452354
H         1.93165904843815   10.23651117793165    1.36398926687875
C         0.73396308784769    9.10954158965922   -0.01816619807793
H         1.24443364315693    9.48365820327930   -0.89387750190896
C        -0.32351480966984    8.22787596893387   -0.15001000496251
H        -0.64936492302347    7.92004340288115   -1.13306184895782
C        -0.99178648252984    7.74535932412674    0.96832166073321
C        -2.17504720637338    6.84511129293037    0.77201987127564
H        -1.85021926585521    5.81668143481443    0.61618405383096
H        -2.73673350443922    7.15422455339130   -0.10716426023221
H        -2.82971570338703    6.86965408663297    1.63859494724107
C        -1.30169952983360    7.61080372135966    3.43858931519296
C        -2.19305894701608    8.46561766034644    4.11634493928374
C        -2.90343468865819    7.97264084312584    5.21443385958377
H        -3.59098093802603    8.63405950727676    5.72256044235654
C        -2.74828736695952    6.66364486158714    5.62068949979220
H        -3.30782728224439    6.29583601960161    6.46946527388404
C        -1.88805970791164    5.82328286599425    4.93906929909363
H        -1.77551339532416    4.79377468404744    5.24724005798992
C        -1.16487972683251    6.28624256718068    3.84668018857226
C        -0.27885207316514    5.32462991729014    3.10999803420045
H         0.27914785226744    4.71266858581250    3.81473296964931
H         0.42401955644216    5.84190892162780    2.46264310912610
H        -0.88611767741593    4.65710493886618    2.49757222199429
C         1.18996165893296    9.03825032350149    4.73012463875713
C         1.56011652330832    7.60916099333963    4.93057702950166
C         1.03839492742876    6.93768987805270    6.04356506695827
C         1.43055776555680    5.63086111154547    6.28850496446452
H         1.01137276963266    5.10951200115804    7.13775385994108
C         2.35716951776776    4.98664641689809    5.48281754694138
C         2.90779939984440    5.68899055845196    4.42147090520514
H         3.65723392532951    5.21270063121907    3.80428257071254
C         2.52831164060554    6.99230104130131    4.13271638165766
C         0.10272784027327    7.61333361668427    6.99686106312844
H         0.67948923444706    8.21267170196078    7.70231709593704
H        -0.47476743237684    6.87866519249202    7.55344607231542
H        -0.58152235390001    8.28193220227721    6.47945760353083
C         2.76793199978947    3.56951489323676    5.74778892258570
H         2.39213527801222    3.22813376256849    6.70902899249106
H         3.85259959978576    3.47675065432409    5.74103488387394
H         2.37436212496037    2.91261578469751    4.97154639838258
C         3.21693346835543    7.70307255046515    3.00525326509561
H         4.24054532110447    7.34426504269649    2.90843007049909
H         3.23513998551243    8.77883145877733    3.17006568057291
H         2.70401636282383    7.51423171053153    2.06122568354942
C        -2.11000068900559   10.84840838251206    3.87336456120440
C        -2.79039055168201   12.00192046953841    3.20322679868357
C        -3.19703765347050   11.90995822579722    1.86342327089033
C        -3.79915527649896   13.00565788781159    1.26179333924263
H        -4.10319125533792   12.93448910818339    0.22642816985370
C        -4.02232161820856   14.19018390627279    1.94786607180853
C        -3.64345586544886   14.25394677449779    3.27840825587865
H        -3.82736005307183   15.16176575711594    3.83720997056526
C        -3.03817049789790   13.18035745720518    3.91845514186876
C        -2.99650573897698   10.67155085132259    1.04723692210033
H        -3.68532798351494    9.89689151483983    1.37690009097304
H        -1.99129359495280   10.27681733053842    1.16758905353506
H        -3.17359746399153   10.87687238480850   -0.00666247317891
C        -4.68297698979343   15.35334926540098    1.27159993271742
H        -5.76311672750914   15.20630968343666    1.24917149836083
H        -4.33841633965685   15.44950960710286    0.24390782397049
H        -4.47808160032827   16.28046573472813    1.80176713736035
C        -2.69195167687509   13.32198965919510    5.37097901367321
H        -1.61466139335530   13.46133114890588    5.48851929072303
H        -2.98134900083949   12.42999482097055    5.92384626373507
H        -3.20706294913124   14.18057621765614    5.79887698568863
C         3.71194884090058   11.34965813942932    5.03674122571938
H         4.29440889523535   10.57465619323518    4.51319880434881
H         3.25107995672129   10.90002171420291    5.91611128605181
H         4.42259392942866   12.12488762532232    5.36218566895488
C         3.38464349868783   12.55398080749195    3.06073226214250
H         4.07020083215648   13.33706267427173    3.42046534888890
H         2.66812073090709   13.00655179182958    2.37826501710642
H         3.99259425558826   11.82413333461515    2.50189635103297
C         0.00522263909704   12.12623508670723    7.32815656749901
H         0.68075849052433   11.55708908001118    7.98722917619246
H        -0.78259278930132   11.45582992543830    6.98283566412865
H        -0.44371932341464   12.93526115435671    7.92081556685232
C         1.73714748271748   13.58069496001770    6.65985197413430
H         1.26639508447621   14.43696671452292    7.16418261633583
H         2.32492998311065   13.95034759993193    5.81789365065576
H         2.41291147974390   13.10139784771557    7.38640526852591
C         0.25193897586172   14.48280932295085    3.36684423891053
H         0.95663629318507   15.01787092016308    2.71181251276130
H         0.49187970858103   14.71411034116093    4.40449020506541
H        -0.75804679588471   14.85604767099177    3.14192345791206
C         0.00663505867436   12.77960439050158    1.76043818521758
H        -0.96202076486755   13.21803550018675    1.48435960172093
H        -0.03584775347927   11.70267737276495    1.58568084290693
H         0.76374386891230   13.21485861728351    1.08748901217290

