113
CSD_code = FUYPUM | q = 1 | S = 0 | Stoichiometry = C58H46MnN6O2(1+) | MND = 6
Mn       10.43008771723145    7.56196295234427   14.07517397625982
C         8.91833661279128    9.44741330510651   15.91876164688582
C        10.91954432790136    4.73062597363543   12.19268523813238
C        11.13726260412023   10.27374312792251   15.24924090609004
C         8.78555770594381    3.77494841518504   13.06272960923208
H         8.86240144014162    2.81632358795764   12.58884571126880
N        11.88836067146556    6.88972489905590   12.85964943944585
C         6.95080234309170    8.47317744560570   16.35796622786162
H         5.95576923634735    8.23740345476891   16.67914155724833
N         9.36549213873776    5.89965718168609   13.70655484105584
N         8.96482902536944    8.24226674972200   15.27924074349494
C        13.09723954983988    5.63111147682047   11.36699724792488
H        13.34507390415790    4.81614068011214   10.71594436536211
C         7.77744138990798    7.62343185797361   15.54806106153077
N        11.49603702687049    9.22422414317970   14.44892622780555
O         9.55215156134318    8.51897101062395   12.53910949075488
O        11.30377153679617    6.61045428520905   15.61636310027896
C        13.04757045984606    7.53760489063017   12.54093624265638
C        14.77440320501063    9.29549869749948   12.59108800529061
C        13.46811312616846    8.76700713059896   13.04284311548114
C         8.16757536298554    5.55602483106537   14.27250670372657
C         7.39637699166690    6.35406969138513   15.11915625590064
C        11.12397488464741    3.50798662184725   11.38680591760678
C         6.09987892620445    5.81863870327207   15.58488685768663
C         7.80877628525269    4.22384648708473   13.88884255842029
H         6.93235904205912    3.70183676702757   14.21782835298189
C         9.71481041545188   11.62867032915634   16.74285086170607
C        13.80934467044749    6.75521147183772   11.60879431351072
H        14.76537695267545    7.03187627609821   11.21085828602177
C        12.73270078438246    9.53149424036974   13.94905679299615
C         9.93144555067740   10.40432286080166   15.94112185189515
C        14.97338544557419    9.64731108063375   11.25958526345239
H        14.16296959377526    9.52617087269763   10.55403836865488
C         9.74794136387400    4.82944812352347   12.94639289827224
C        11.90640439472449    5.71457960453377   12.16514887264548
C        13.16100976444151   10.80294121697269   14.44965961519961
H        14.08926851709920   11.28056664299840   14.20672877796654
C         5.86464588402108    5.61774614406331   16.94211771247594
H         6.64084261919859    5.86150099951922   17.65442666263000
C        16.19216511926460   10.15040369417045   10.84123740033064
H        16.33337322469866   10.42430033922814    9.80607960242453
C         7.65726471701784    9.60336380589803   16.58755936018157
H         7.35634976180247   10.47444577055797   17.13544215461495
C         4.65548103044395    5.10592807079153   17.37688639852575
H         4.48653543580032    4.94954858887434   18.43212968653731
C         3.66169093127930    4.79767693722307   16.46275388676460
H         2.71743381181774    4.40140225806489   16.80300229839715
C        11.50123409063406    1.20468216230770    9.87109168666782
H        11.64695151446826    0.31094149866723    9.28409757807824
C        12.17893000687553   11.25680625548582   15.26641020468620
H        12.15718042859517   12.16761944000754   15.83137050968172
C        10.25002074817446    3.19476006001575   10.34967744574856
H         9.42304095627045    3.85653255952650   10.13361293794558
C        10.71146197006188   10.24069427946925   11.57965718445502
H        10.42801263269436   10.81540006857040   12.44902397791415
C        10.44095856807835    2.05180691454346    9.59463844001255
H         9.75980939955206    1.82116331627833    8.78927242231349
C        10.54258496292026    8.18000767897277   10.50523641766767
H        10.13393574180554    7.18098270204111   10.55491882340732
C         9.51827296812500    6.63074649360664   18.69884703650611
C        17.23028072688708   10.29941122605684   11.74564778830521
H        18.18181664183261   10.68871939433036   11.41785599855172
C        15.82280667184540    9.44775575374121   13.49317791739522
H        15.67759810505625    9.16206396773671   14.52458255950343
C         5.09531652826485    5.50660989545321   14.67338287104210
H         5.26598966144096    5.67708872508569   13.62066770879024
C         3.88365683911989    5.00349527362574   15.11125150637338
H         3.10960792129758    4.77192255509890   14.39532706015810
C        10.31885459753000    7.02196166057668   17.63897828983508
H        10.74913661660350    8.01048518403222   17.56197068812431
C        11.81830909416696    9.91721548100977    9.49770614650531
H        12.43898073407967   10.28689663599175    8.69553719358600
C        11.33200442109997    8.61481071111099    9.45458469909641
C        10.11451941763709    4.93510168008816   16.62193778294812
H        10.39307180008562    4.32850341986702   15.77276889499015
C        12.18866030210964    2.65309322169299   11.65652506043300
H        12.86276988567774    2.88681947264092   12.46797017607205
C        17.04334305804392    9.94305168548739   13.07082660916302
H        17.85145297367539   10.05077156205034   13.77843506075581
C         9.30758696672606   13.92773510078031   18.25913580849892
H         9.15007463338926   14.81902057155884   18.84664584054637
C         9.30528433711132    4.47007329621147   17.64158660008680
C         9.00364143022268    5.33921226739967   18.68769243823612
H         8.36990566934964    5.00387910510155   19.49464815456628
C         9.59367733167699   11.55005938480024   18.12679204106441
H         9.66645924128276   10.58683374524313   18.61159650920018
C        12.37246593914414    1.50693539140211   10.90460189866253
H        13.19743293725542    0.84697308014578   11.12709802653478
C         9.62711119603006   12.87349837046235   16.12772315644536
H         9.70643387077447   12.94069586027196   15.05211596121920
C        11.50448773236064   10.75088513973547   10.56844768854026
C         9.39531502383269   12.69293127735796   18.87980563037563
H         9.30918260788747   12.61988664143969   19.95365423380218
C        11.67791887412958    7.68268609608304    8.34230177566230
H        12.57619091358967    7.12439490668476    8.60738454574782
H        11.87619126130099    8.22768031048086    7.42371684653083
H        10.87991742572148    6.96601745141131    8.17049098471026
C         9.42122816136431   14.01452690432687   16.88169633160186
H         9.34826157441100   14.97424148669341   16.39256991164978
C         9.19249920636579    7.59857447757687   19.78742265340810
H        10.04114318263843    8.24309451605270   20.00098200375419
H         8.90189997448163    7.07991204833206   20.69644453553634
H         8.35939920166266    8.22870112869324   19.47390875400055
C         8.74286850654667    3.09000542859454   17.59817091573636
H         9.15934562964966    2.52208385574724   16.77230413352654
H         7.66178187323252    3.14084005610563   17.47320727574057
H         8.94382501598258    2.56485365226467   18.52923313913249
C        12.04348782346344   12.13874854866924   10.65424018351229
H        11.50408649338991   12.72461334940208   11.39207857567600
H        11.98632770797217   12.63614553310070    9.68924223379108
H        13.09265111315257   12.10076768529515   10.94840453006180
N        10.26892912644704    8.97538806483068   11.54742510020001
N        10.57979096836453    6.19298063725950   16.62018643994407

