35
CSD_code = FUYQEW | q = 0 | S = 0 | Stoichiometry = C12H19ClN2Pd | MND = 4
Pd        2.77923867371724   17.04871900951071   11.48200763888978
Cl        1.51256199345671   15.18396035837319   12.09973547529033
N         3.85410713490323   16.18285754780345    9.89685965871906
N         2.04089597128316   18.41050135751260   12.90224407204999
C         3.82309410243910   18.58474021714109   10.97312386125233
C         4.83405377294339   18.43314768072253   10.03348193000525
C         5.58080654673737   19.54238916812755    9.66356472414654
H         6.37111332488178   19.45607938810059    8.93056063930150
C         5.31041305230774   20.77124645920258   10.24998315938456
H         5.89651101753252   21.63273892295942    9.96510602022928
C         4.30351822268751   20.91751844930659   11.19437145038185
H         4.11363647590594   21.88634163491083   11.63556836265546
C         3.54487746360116   19.81373939383369   11.55633671791787
C         5.04104366573737   17.01389380047200    9.55778438289781
H         5.91059126582368   16.59927157038246   10.08120177518651
H         5.24301108319664   16.95871114005998    8.47837379204638
C         2.86227935091475   16.25963594290336    8.81846356536612
H         3.25012057109163   15.80072452019412    7.89772134270336
H         2.61690639241335   17.30835822937452    8.61834804488224
H         1.95418644734338   15.72865668153010    9.12514896948369
C         4.23307102139041   14.78998114739469   10.11962327426906
H         4.69286705743185   14.35419919013327    9.22247062665744
H         3.34249560908301   14.21635093893023   10.38373670194289
H         4.93633233901452   14.72878103872534   10.95285353453487
C         2.36761085734476   19.80653065220235   12.50365739236388
H         1.50097642317063   20.22466651860932   11.97820061086655
H         2.54501769084847   20.42134185696664   13.39777532135062
C         0.61584837747208   18.26426218638627   13.18720294236228
H         0.30467160665849   18.92270895981184   14.00928578950384
H         0.41149265187454   17.22671880003044   13.45864172250729
H         0.03556976830150   18.50237181012217   12.29321305919185
C         2.82372631487696   18.02880729614711   14.08290380760516
H         2.52755961997495   18.62565175101861   14.95747586027648
H         3.88913851752975   18.18964979395939   13.88545864483739
H         2.65315561610888   16.96874658714183   14.30161512894031

