44
CSD_code = FUYQIB | q = 0 | S = 0 | Stoichiometry = C19H19NO2RuS2 | MND = 8
C        10.38364934308545   13.12540975158671    2.36071395441594
C         9.28428411271808   10.82111569755128    2.23003927091964
C         5.88505253163322   11.24037153897924    1.72193481849984
H         5.47303491264302   10.52918446134515    2.43396974751468
H         6.56284994600136   10.70743400994429    1.05395023145016
H         5.06894020894457   11.64659160595545    1.12296445756057
C         6.59709998034028   12.35689104321092    2.42062492106878
C         7.22150856641911   13.45913525528966    1.75019543698097
C         7.57035355760923   14.44802267296862    2.75597612487126
C         7.26642303253621   13.90399410084157    4.01934136711533
C         6.70367242023852   12.58206940117998    3.81695631469671
C         7.15960413835876   13.69447501340560    0.27072786511631
H         6.17294749418492   14.07481524404739   -0.00410543114862
H         7.33173330535118   12.76448537417750   -0.26762159047324
H         7.90695171480582   14.41973933660908   -0.04357843049594
C         7.98196485836000   15.85997127603616    2.46044079605976
H         7.09285364688096   16.46466423740674    2.26827060753161
H         8.62145953225404   15.90732895768123    1.58118652256750
H         8.51955234490802   16.29898114859274    3.29799843680768
C         7.30064787925706   14.61913808665637    5.33660656764675
H         8.00827602617628   15.44517194997974    5.31640723596227
H         7.58596778303022   13.94601017423824    6.14377930654409
H         6.31035139425987   15.02074957314170    5.56379173717290
C         6.02235845992207   11.79082540274340    4.89757637084158
H         5.02190070587523   12.19353534463035    5.07301154273620
H         6.57684494888438   11.84415856648471    5.83347865867229
H         5.92591557390388   10.74253100196315    4.61986366196704
C        10.47659737004132   10.30595085331329    4.29082049565717
C        10.93374183991896    8.87921900131430    2.55674156423649
C        10.92875716348937    8.32907913839981    1.28165775146808
H        10.32913128445873    8.78018619785955    0.50868990651140
C        11.69834378458846    7.20558185932993    1.04561429602330
H        11.70268457116108    6.77015352689099    0.05853505665729
C        12.46467690895181    6.62995184594442    2.05202899740390
H        13.05622982379623    5.75284904666576    1.84083389655276
C        12.48055185327350    7.17066024987447    3.32533975075302
H        13.07241288645939    6.73652535269960    4.11468627451292
C        11.71285881569729    8.29528026255253    3.56482760787045
N        10.25630189207853   10.00696838095932    2.99412177252162
O        11.39262775041095   13.46740376626598    1.91734765083570
O         8.87715675808652   10.35217950768369    1.19686676714166
Ru        8.77354218398498   12.54205031350858    3.02917372115056
S         9.74775740902264   11.60743556816774    5.04137050069026
S        11.55602928588395    9.18932490180942    5.06764348745224

