46
CSD_code = FUYREY | q = 0 | S = 0 | Stoichiometry = C18H22BNORuS2 | MND = 8
C        12.39208850545087    4.86985583159501   10.95991114749090
C        12.96422623723474    3.54186731695765   11.10029753064706
C        12.52505967944250    2.76025181547242   10.01985553314078
C        11.63560736548530    3.56408131995267    9.20575466875908
C        11.63229776685899    4.89268282807884    9.75531489251830
C        12.80511911222403    6.05874869413190   11.77286990776380
H        12.09098287790079    6.87236934097587   11.66544903695658
H        13.78366266068428    6.41227413539156   11.43996870484371
H        12.87612002963416    5.80483907212030   12.82972383036383
C        14.01952357309821    3.18241427100153   12.10351937628748
H        14.99159971276229    3.54548315677388   11.76148032102330
H        14.08497971781083    2.10449873473378   12.23945395434727
H        13.80991907946046    3.63591774037427   13.07144270984360
C        12.99564188461705    1.38999891550766    9.64039859525036
H        13.49262640427420    0.89676983049572   10.47208884228339
H        13.70457653017947    1.46862820621445    8.81332272264109
H        12.16544021403656    0.76295460783875    9.31904347897643
C        11.16846477850954    3.18277450347335    7.83200114619447
H        10.90156393499803    2.12852743811972    7.79062199640725
H        11.96584952460308    3.36254783602228    7.10678270107341
H        10.30029234079048    3.76881190536742    7.53781856101461
C        11.06184517851741    6.10900610624727    9.09054699569914
H        11.80889829013399    6.53938051282887    8.42022561159166
H        10.78312625239997    6.86422304335366    9.82206465347902
H        10.17975948588884    5.85982556557080    8.50447224144830
C         9.04255745684699    4.26814461866813   11.12257940615144
C         9.87729881544175    2.28384966622748   14.18403943346911
C         8.60558260572580    0.67813100210485   15.54891748435997
C         7.90667752376573   -0.11485368790928   16.44119936810056
H         7.73909422169236    0.22270104870048   17.45118852304274
C         7.43709046035299   -1.33725532474521   15.99977229873457
H         6.88777369154237   -1.97415481723293   16.67536104225251
C         7.67016569012246   -1.75007182619137   14.69228773408469
H         7.29831368233027   -2.70881484286442   14.36473252570324
C         8.37006355170789   -0.96000705991122   13.80248263473137
H         8.54959117157341   -1.28918073570274   12.79372499365628
C         8.84707857023503    0.27843492255232   14.22381422798496
B        10.13321269010429    0.92567978690309   12.06890244652882
N         9.56413420652659    1.19694877022793   13.48939083900009
O         8.04141185450728    4.83173760751577   11.01263579365782
S        10.73942266533827    3.62222568417395   13.64959818087351
S         9.30774605463607    2.24955871284842   15.83680459270835
Ru       10.70586737330753    3.49862554403260   11.20817537861475
H         9.47319393317770    0.13523338051239   11.49501312730973
H        11.28443263693498    0.64599590976223   12.16627647127798
H         9.98532000707834    2.03833891169177   11.34487433772849

