38
CSD_code = FUYRIC | q = 0 | S = 0 | Stoichiometry = C17H10BMnN2O3S4 | MND = 6
C        10.09743341893983    1.84437776951666    5.73099973998119
C         9.29002372601227    2.20638008131988    3.42756488005638
C         8.75086720147349    2.54172194811475    2.19827361467628
H         8.09225218135126    3.39028737972244    2.10853837305845
C         9.07947548169017    1.76188495292777    1.10608827825102
H         8.67410843442284    2.00259600850902    0.13600340771028
C         9.92436348712154    0.66780468218294    1.25242944142878
H        10.16731191822376    0.06317980581557    0.39222281036381
C        10.46292745462282    0.33264453755566    2.47962138005447
H        11.10632754986937   -0.52459422013748    2.57149912224517
C        10.15119084953333    1.11115255070947    3.58980421035640
C        13.64333252271498    1.01372959003866    4.83676978802063
C        14.54147127658168   -0.29960267686201    2.95572061157702
C        15.18744051775971   -0.93069371624171    1.90740616800154
H        16.05276514772566   -0.47726572153393    1.45191623618051
C        14.69973932484760   -2.15014128023488    1.47826696843361
H        15.18718565485887   -2.66423163920949    0.66504783881070
C        13.59624403983961   -2.72497991907150    2.09888144621637
H        13.23972915267111   -3.68734560362445    1.76574449047171
C        12.94684837877512   -2.09203246138183    3.14068912407894
H        12.10430573486228   -2.55855382943870    3.62370863162671
C        13.40883952038169   -0.85152749598137    3.57308400959683
C        13.81993908469051   -0.09410004865718    8.06233492906052
C        12.76406093884824    2.02547950266631    9.13476950835423
C        11.42902271506933   -0.19260882981038    9.17428096345519
B        11.51798716497339   -0.26140404708572    5.27338563133864
N        10.59676160725127    0.93724385533638    4.88843786481368
N        12.89303426042413   -0.06246311662585    4.58362841153502
O        14.83291702100458   -0.63715477477281    8.08813352260302
O        13.06031438901123    2.84573855288791    9.87216590915405
O        10.87040580580935   -0.78929528589786    9.97921020881194
S        10.27390091318268    1.99565013564991    7.39235746513065
S         9.04150215686099    3.00394970810425    4.95738604691065
S        13.44013025490288    2.13397676790786    6.06474072162919
S        14.97542850278702    1.20649686361805    3.72424756975036
Mn       12.27292715390646    0.78865792363998    7.93882455289435
H        11.00601033846057   -1.27073298966245    4.93959420375474
H        11.70087471853880   -0.26192495999450    6.52322191961263

