47
CSD_code = FUYRAU | q = 0 | S = 0 | Stoichiometry = C19H22BMoNO2S | MND = 9
C        20.71375224431911    2.24105709112956    5.97291435437159
C        19.87465883829689    2.09919002782657    7.13178680150422
C        18.57523572251750    2.57077017750406    6.78802442021705
C        18.61376127933734    3.02305302937945    5.43652453646578
C        19.92640662335843    2.82146006642337    4.93101991908334
C        22.20563643326733    2.09267291638315    5.95555463795192
H        22.56312224424830    1.84331270343182    4.95747505644615
H        22.52898948122279    1.30734297921854    6.63653440207104
H        22.67782471362526    3.02837798541373    6.26444295788034
C        20.35026563482556    1.76441930346674    8.51278346989301
H        20.65455415952224    2.67568407892228    9.03317699174631
H        21.20460285264473    1.09107095600709    8.47877659039495
H        19.56681344236172    1.28409368859183    9.09706623473857
C        17.44527452618032    2.81585005279402    7.74585338482825
H        17.48594603299461    3.84499391535384    8.11194040227088
H        17.50603761751278    2.15041123172186    8.60627217340116
H        16.47722639059777    2.66694944312971    7.26650693178086
C        17.52766054014665    3.79024201992112    4.74710560489627
H        17.66356413313413    4.85891270344730    4.93263336668573
H        16.54444508587233    3.50447335270807    5.11552614042638
H        17.54839587133060    3.62746961996278    3.67075688661205
C        20.45004513288544    3.35119958614831    3.62878453576331
H        19.68083694102230    3.33471437643453    2.85836781621363
H        21.29618628611469    2.76359457452252    3.27662564027275
H        20.78203606387521    4.38480418298057    3.75682347730978
C        17.68123980184127   -0.30843874738584    6.68273104375847
C        15.50744822318457   -0.92340278450511    6.98770964243792
C        14.16366761543061   -1.12545401118867    6.69031052782450
H        13.78987791885986   -0.85584080732811    5.71583737640415
C        13.35121262028525   -1.67207886390392    7.66251930701386
H        12.30599080153277   -1.83818611436862    7.45044095465147
C        13.85584143645561   -2.01644730693941    8.91469852405213
H        13.19693898754224   -2.44412427146571    9.65466001751891
C        15.18865088254508   -1.82098480981702    9.22491723317156
H        15.58595358448351   -2.08661048193880   10.19158719579502
C        16.00767346225863   -1.27354665485576    8.25311015804580
C        20.15548395026023   -0.77920798653627    6.06786095147720
C        19.75730060583872   -0.21897606645576    3.96751294977893
B        16.42239151776369    0.14378258586715    4.74325272128547
N        16.47483344204205   -0.39424960239904    6.17813955287308
O        20.81855342536402   -1.67117217394396    6.36577650113909
O        20.24423215319815   -0.77758471554418    3.08592881921842
S        17.71547001817949   -0.90471145362363    8.31980537716132
Mo       19.09236593794749    0.72959961112365    5.51689814650996
H        17.65463209286713    0.64683009205071    4.61198842259454
H        16.30043037335866   -0.73222837317957    3.95759094400936
H        15.65803285754597    1.04391287351238    4.64604690005761

