108
CSD_code = FUYTEA | q = 0 | S = 0 | Stoichiometry = C48H56N2NiS | MND = 3
C         2.07366384294112    6.41467336521271    5.31905296599506
C         2.22437595801066    5.83771548608514    3.92858556872593
C         2.86761003959609    6.58041173762519    2.94558233064191
H         3.27441637063550    7.54877475657740    3.19535593195505
C         3.00745302560443    6.08273936071419    1.66484800077988
H         3.51616100846895    6.67415105054663    0.91798250110049
C         2.50323368860576    4.83302883639556    1.34578393926995
H         2.61678964660779    4.43840216851927    0.34649635111178
C         1.85316842151542    4.09105722605665    2.31619918610052
H         1.45253555792196    3.11660234736879    2.07574916867170
C         1.71000998896722    4.58982818391705    3.59959827950915
H         1.19341034860788    4.00397249564708    4.34637938128242
C         1.81387845633103    5.33226598369576    6.34515278598386
C         0.59467608959594    5.19982946685974    6.99775732826446
H        -0.21961129460341    5.87375864090618    6.77144578808890
C         0.40799476668239    4.19992522162701    7.93807901130437
H        -0.54575798830295    4.11224653877274    8.43863950408113
C         1.43148464546332    3.31845678411741    8.23501574931543
H         1.28324044136619    2.54157241835285    8.97065251224917
C         2.64610231944771    3.43629980233348    7.57894037375414
H         3.44996879028714    2.74904480606680    7.79900962384332
C         2.83362683616570    4.43277743131945    6.64154919941230
H         3.78205942085248    4.53134631986189    6.13390187582259
C         1.02050951040403    7.49121682781326    5.37050662113641
C         0.94544598269856    8.30257010466775    6.50725234143584
H         1.60911595344320    8.09902433208482    7.35084313579642
C        -0.08206875354955    9.22235182615989    6.64454085461625
H        -0.17095540095929    9.78924692683530    7.55792110045014
C        -1.00445476053909    9.39102833472168    5.62455809366407
H        -1.80153796760777   10.11221738627788    5.72985368226969
C        -0.90885660389389    8.62069106362095    4.47924295630661
H        -1.62711244804878    8.74535102745008    3.68191203177302
C         0.08802990771095    7.66715479600751    4.35658128992332
H         0.13184463965145    7.04651231321162    3.47392483360866
C         2.32651034712741   10.43943592113303    8.78821376923208
C         1.31956153410003   11.41580294043601    8.90284495849861
C         1.33990899734230   12.68000502825475    8.07166165454917
H         2.29478473342395   12.73778798122116    7.54214560363665
C         0.23373756142219   12.65782714647456    7.01325551952933
H         0.39492638492229   11.84074396189924    6.31496721316858
H         0.23448211025579   13.59319795221977    6.45718498188671
H        -0.74332287182181   12.53364604814178    7.47537867440013
C         0.28211429004622   11.19527413775375    9.79862876442567
H        -0.50444069034871   11.92898139898684    9.89204259111360
C         0.23729791051079   10.05337767839072   10.57555205989282
H        -0.57648165521296    9.90384836131796   11.26970262581982
C         1.23496694047715    9.10075624559068   10.46465788322666
H         1.19226929915725    8.21672514752635   11.08103769420735
C         2.28232145877201    9.27025280659852    9.57459603908119
C         3.39105483354729    8.24374290900598    9.45869485724568
H         3.81769966232052    8.29409778687599    8.42673987315322
C         4.51993140911784    8.59276126647896   10.43245057247193
H         4.94613645900852    9.56455084591776   10.19728423241995
H         5.30992028652538    7.84772979125140   10.36987671410398
H         4.14358807171368    8.61602572985219   11.45426548134835
C         2.92083549807890    6.80829908535581    9.69356711965566
H         2.74006413840389    6.62196392778603   10.75031536805816
H         3.68634982819358    6.11273023324374    9.35610861077406
H         2.00766009089149    6.58896158744594    9.14335179315876
C         4.33131046893381   11.49622655049420    8.09530136745522
C         1.19989205094188   13.92668193915179    8.94991108387126
H         0.19320771723728   14.00847362975242    9.35241789247899
H         1.39933273772010   14.81940465731450    8.36060856265859
H         1.89797511029294   13.89921295265050    9.78341094143713
C         4.40148839957464   12.27385197703770    9.38720833531834
H         3.67558427166532   11.91587753484394   10.11306040831962
H         4.21975771403447   13.33020461991590    9.19684038813659
H         5.40121969911043   12.18184933745784    9.80859440261725
C         5.32436212595664   11.77712198211071    7.15991489390143
H         6.01213936930007   12.57071289165858    7.40490800808925
C         5.49213453059482   11.13741459816252    5.93653970533166
C         6.50801396640195   11.76782584037575    5.01153224824782
H         6.88036866955825   11.06567521439869    4.27222637947221
H         7.34007837022041   12.16780268224206    5.58547574934442
H         6.04042935928232   12.59800419708440    4.48165970069376
C         5.08841238485590    9.54465359710110    4.25993795682910
C         4.41675891990206   10.08559399732715    3.14914953318947
C         3.37510967316045   11.16426675801647    3.36292157352893
H         3.75127620316758   11.85267716402522    4.12754425732446
C         2.09500222684015   10.52714828227749    3.90845638880785
H         1.71541393272849    9.77359699965206    3.22162699324012
H         1.32520303943709   11.27984184391057    4.06406758220724
H         2.30562758121016   10.04192752586503    4.88280355351974
C         3.06486526152161   11.98299066001695    2.11165586933838
H         3.97879728409273   12.36047384770732    1.65835422490102
H         2.43923396390329   12.83222216824069    2.37945112436462
H         2.52448120992333   11.39013862380574    1.37748396734696
C         4.71309320215717    9.59397938347137    1.88709230755121
H         4.19961192451825    9.98130358109667    1.02181158587597
C         5.67319931120870    8.61311564481816    1.71707342757281
H         5.90459115493837    8.25177377918040    0.72554004203064
C         6.33710966087000    8.09544616534036    2.81252849648255
H         7.08530502633604    7.33333351194018    2.66346992579044
C         6.05681812673908    8.54008884134977    4.09613036741713
C         6.78736599019099    7.96094873103257    5.28612130015495
H         6.18966518201587    8.17655093562701    6.18050856748466
C         6.94447953544058    6.44337880117083    5.17661252076088
H         5.99757131317453    5.98719150500348    4.90218114665902
H         7.25829386680943    6.03794987018837    6.13592265768336
H         7.69408629147121    6.17417578028350    4.43627954929699
C         8.16545068404024    8.60800520722771    5.45435465994022
H         8.73790013008946    8.52761658593449    4.53190827279283
H         8.71505731791041    8.10257603645236    6.24549692938815
H         8.07728382961180    9.65699302551544    5.71990280995789
N         4.81988541933233   10.06627825865272    5.55300872035465
N         3.38340585401655   10.61328553696125    7.87861910486992
Ni        3.35570402239177    9.22998886084785    6.55278564210608
S         3.68491884712474    7.20127659873232    5.78556992054265

