82
CSD_code = FUYVUR | q = 0 | S = 0 | Stoichiometry = C34H36BN6O3PRu | MND = 6
B         2.14985485495156   17.86500374849058    3.92960344642233
H         1.72398995315575   18.96675546883407    3.88111357729713
C         2.83713807343278   16.02556296065103    6.96455562671270
H         3.17818691092994   15.11706382325518    7.42059190082126
C         2.36315100024280   17.19056507360052    7.56951995650931
H         2.25742452030664   17.38423526430287    8.61713994029192
C         2.06249522092479   18.03115988147774    6.52085140002924
H         1.67024579298604   19.02787355704567    6.51644723538187
C         0.52986409347928   14.90417006719428    2.66894124568868
H         0.53500153160596   13.83454081202385    2.57014944946634
C        -0.42236716095998   15.81716280004408    2.21213565463533
H        -1.31928431217862   15.60616475640879    1.66664533120874
C         0.04954694374610   17.04505119306489    2.62167058916634
H        -0.35777852357985   18.02728811046438    2.49258230808095
C         5.23326684630622   16.74314373139611    2.44134878581573
H         5.91708760284415   15.93749937811455    2.25219493762059
C         5.34567809019389   18.08192805509312    2.06352840415486
H         6.13546137911256   18.53782126141871    1.50265451565060
C         4.21546883461661   18.67955327670335    2.57538891463314
H         3.88070112978152   19.69596260541223    2.52795000717547
C         6.56776096416444   15.49548246242422    5.15585936885664
C         6.16008048620075   16.76677539483211    5.55313363719335
H         5.11073318084498   16.94774339940180    5.74061297137150
C         7.07821541452198   17.78815891378400    5.70481929545240
H         6.74667973816907   18.76981893064652    6.01122875455234
C         8.42076651422212   17.55353679227758    5.45564313886777
H         9.14044618707735   18.35141752370278    5.56593440333361
C         8.83570071297813   16.29302729121953    5.06198851646819
H         9.88197230338341   16.10528966435034    4.86740742736302
C         7.91738121699861   15.26794926291663    4.91202966796358
H         8.25590260817007   14.29036324471927    4.60092537880528
C         5.22992759260945   13.48501821600938    6.62700613328578
C         5.65193434282307   14.16244087982129    7.76475645653849
H         6.09522770577284   15.14401363512248    7.67365069521317
C         5.50560584812107   13.58308911339565    9.01418665021002
H         5.83661455555834   14.11596528866098    9.89398611997593
C         4.93626493190499   12.32762327965776    9.13959583936755
H         4.82131672964143   11.87963393357447   10.11596900778356
C         4.51247425429275   11.64606406671039    8.00856395482009
H         4.07061053064659   10.66425788102588    8.10500559904832
C         4.65391481388354   12.22281261619723    6.76162359279490
H         4.32535358107445   11.70186075174316    5.87112244130858
C         6.23025048234617   12.93930347417518    4.05589668769475
C         7.00503315253734   11.97209492946661    4.69148643360852
H         7.03519861766615   11.92469786135847    5.77078094726263
C         7.74404649498314   11.06982875473527    3.94674057423350
H         8.33792784380059   10.32055987136656    4.45053060154824
C         7.73162330109062   11.12786236960005    2.56303306286431
H         8.31094379193073   10.42206018372706    1.98576347888465
C         6.97665224459558   12.09695919193282    1.92346460603222
H         6.97327517150381   12.15201775890291    0.84356552804038
C         6.23112375639817   12.99574939058798    2.66521173072340
H         5.62142758911075   13.73964823162532    2.17171311111197
C         2.79169690863103   12.43661494110156    2.78922426731251
C         3.28823959081689   11.64405217870199    0.62888731868974
H         4.36892905994647   11.78296911120687    0.75032426114743
H         2.87066566703434   12.56354415747093    0.20047157595876
C         2.98923091198348   10.44245087889992   -0.24890222216180
H         3.43005879014099   10.58643975091486   -1.23137507172267
H         1.91548235472371   10.31399277135109   -0.35533199986071
H         3.40249130251816    9.54327356085734    0.19996975708892
C         2.21028162158233   12.23211800008032    4.05647373745706
H         1.71943525567017   11.29093146122139    4.26028583963416
C         2.32502853761853   13.31674312102843    4.90273977495555
C         1.14247685970470   12.21720518483095    6.67829691081070
H         1.77238997729558   11.32327222789505    6.59622577297258
H         0.21599256793345   12.04741400250889    6.11463514326013
C         0.83913158723459   12.52038222146068    8.13606966986715
H         0.28820435602802   11.69717598976125    8.58319973863721
H         0.24720883624969   13.42866027192838    8.20903875133454
H         1.76779798544992   12.66805031048699    8.68180558288208
N         2.82065236147854   16.16925504537182    5.64655453624965
N         2.34815021126218   17.38988243134258    5.37540912100979
N         1.49749811480469   15.54976655324684    3.30355671718769
N         1.20569741666531   16.85014582591077    3.27409912125866
N         4.11586079039675   16.55993342218241    3.12689823337203
N         3.49796788427715   17.73918495637918    3.21033573189263
O         3.35729084000960   13.50070410455999    2.45681786494578
O         2.70564008488906   11.41870064266760    1.90846705903936
O         1.82973316272137   13.34380923392335    6.13554725916591
P         5.26566538324429   14.21754895147579    4.95224613072518
Ru        3.25488213875168   14.90374830647053    4.11218037756145

