59
CSD_code = FUYVOM | q = 0 | S = 0 | Stoichiometry = C16H24F6FeN4O6S2 | MND = 6
Fe        2.20798811623243    1.37304603444675    6.36526812309935
S         0.59154177954550    2.72125786312262    8.85563889771295
S        -0.52353705721702    0.73610589840458    6.99233033261643
F        -0.70470350761983   -1.92832033872941    6.95049675665636
F         1.12409094212764    5.21990818017022    7.89996114271819
F         1.15197390878794    5.17528591335155   10.05582513254412
F         2.78117025681365    4.32652399229582    8.93416409297252
F        -1.71800272159629   -0.98313858024828    5.30719576067949
F        -2.65274243856682   -1.05304922321254    7.24827668112874
O         0.59384172749366    0.33872073011766    6.11736249444444
O        -0.29623197669964    0.61134258906942    8.40224298698842
O        -0.75896296114867    3.08458340728342    9.07990800958180
O         1.36978096599557    2.04163236220508    9.85326946586338
O        -1.39011385583619    1.73648277728362    6.47387072312154
O         1.02613969927164    2.49944592105300    7.46253206021032
N         1.83337468686532    2.65356199590076    4.84568401766454
N         3.06953810317330    0.11618825329873    7.77323562157780
N         3.24610511320327    0.31391649484831    5.05824589304512
N         3.56511201674910    2.44881106469304    6.74874777756895
C         2.45075495957727   -0.79106686675254    4.53992204933586
H         3.03297125521566   -1.40475410186106    3.84463605114544
H         1.56549262884589   -0.40817944183724    4.05073947654733
H         2.08565426501139   -1.39269495005710    5.36105630916619
C         3.70873800483623    3.59483502212447    6.08696828636302
C         4.76218503634860    4.45347150678271    6.34266079898355
H         4.86063602916171    5.37441422917460    5.79119956536764
C         1.43329302590039    4.45387630831537    8.96737842981150
C         2.37723527360150    2.04754819567593    3.63373958954834
H         2.62180532855831    2.80910242639489    2.88066599719935
H         1.61312066645765    1.39663320382887    3.21466430378326
C         5.43392601771774    2.98161148677257    8.10452166346980
H         6.06360613280484    2.74014907495158    8.94481990978839
C         2.55124590268609    3.88050422307217    5.19172662933586
H         1.86964042926316    4.49435791618914    5.78199819027819
H         2.84214593053572    4.44907277646358    4.29903890538256
C         3.84237874550106    1.04201474151873    8.59887801276638
H         4.63527017134124    0.53098739962385    9.15975889964895
H         3.13263701568394    1.48425959098932    9.31042550828212
C         2.18764090106677   -0.67321173522712    8.62040194488197
H         1.51909688952976   -1.25628853426261    7.99424350172553
H         1.57494716592641   -0.01087631977341    9.22231100486736
H         2.76197215139291   -1.33972988180146    9.27341877378696
C         0.42776656855169    2.95942945080837    4.63762096360897
H         0.00645296150661    3.34648280880144    5.55891895303365
H        -0.11141893745525    2.04335949741367    4.42032448596905
H         0.29187682904618    3.67920701607382    3.82380471872943
C         5.66531242738295    4.11987846389145    7.34403583872955
H         6.50394128977464    4.76167307672310    7.55956595059086
C         3.96036912367420   -0.80547768278386    7.06221033518817
H         3.41088400061314   -1.72253727938848    6.85881812804015
H         4.82767510173594   -1.06859189040822    7.68237398957996
C         3.60673677438910    1.23003074536834    3.98110275042620
H         3.97756953455090    0.68832864003298    3.10084110598869
H         4.39564371984531    1.89348022205781    4.33748184519247
C         4.42190080151364   -0.19553735294142    5.75211060631214
H         5.09852776077634    0.63555445830933    5.95087242588319
H         4.95544031142409   -0.94043475158359    5.14588340678316
C        -1.48618008288819   -0.87600522828125    6.62936546645288
C         4.35254509102647    2.17751820024993    7.79003925783207

