45
CSD_code = FUYWON | q = 0 | S = 0 | Stoichiometry = C12H24Cl2HgN4S2 | MND = 4
Hg        6.60038940894931   12.78227322861982   13.21641931443409
Cl        4.44996514924236   12.86715391443458   12.23743210717806
S         8.05295415668242   11.48027653005997   11.34447506958923
N         7.35216740449779    9.68214383164668    9.51305065611622
N         5.63808537869892   10.67673359185958   10.45399769735461
H         5.11614792383395   11.37328819218724   10.99906136229492
C         6.96225400916379   10.58804935048314   10.41971112429469
C         6.20917084744029    9.06376489412423    8.86580149490164
H         6.17854736107273    7.99199905810370    9.08550624264584
H         6.27831144253137    9.19292678860268    7.78107755716924
C         5.01144715329409    9.81189548559879    9.47708902479498
H         4.46874224728598   10.40658635491494    8.73617623559311
H         4.30202516864209    9.13990383563025    9.96721411007514
C         8.70174018990011    9.26419023765287    9.25162099636201
H         9.35834290809127   10.02396135746262    9.68065754832733
H         8.85014380581755    9.23447484286306    8.16682912328725
C         9.02975293845765    7.89814044570049    9.86293641401025
H        10.06302893408241    7.65856188507627    9.60783351408150
H         8.39274576114870    7.13051322039989    9.41781499288990
C         8.86124157386577    7.90069358944522   11.37656763283978
H         9.14720798906120    6.93778799545703   11.79234081526581
H         7.82832029989134    8.09912502379047   11.65308502399416
H         9.48140608416125    8.67255332413029   11.82424434423136
Cl        7.60798715823887   14.69095699123829   14.18152198472806
S         6.98973834775913   10.88713008364661   15.10298298641103
N         8.91493971318443   10.59009260895433   16.91540232679275
N         8.90328588589426   12.57321453508900   15.97755959564260
H         8.56091456899611   13.37283234366839   15.43161865917122
C         8.31797329966035   11.38228003427044   16.01492349315682
C        10.02938234723869   11.26857008488006   17.55221902127822
H        10.96996913356595   10.75837605514097   17.32222452072402
H         9.89401221748208   11.27196367435917   18.63837036128368
C         9.97579277586513   12.68083836847780   16.94350472618549
H         9.74033256761071   13.44726287702038   17.68805493683013
H        10.90775411663322   12.95905669920900   16.44439543131331
C         8.60615247898185    9.21100169330372   17.17467786722742
H         7.61462516302233    9.02347574011055   16.75738591332751
H         8.57153288670033    9.06298348398255   18.25934716436628
C         9.61792061751309    8.24711322444645   16.54633953741089
H         9.31259327895481    7.23125601038001   16.80119010647099
H        10.60669855459141    8.41369144220346   16.97964649388471
C         9.68093943162989    8.40024334965174   15.03238048648887
H        10.36670968699176    7.67284418039247   14.60520934341970
H        10.02187113999180    9.39512281859316   14.75525467947526
H         8.69693649367767    8.25049672273562   14.59634796266683

