53
CSD_code = FUYYEF | q = 0 | S = 0 | Stoichiometry = C25H20CoF6P | MND = 8
Co        4.36405028412259    2.74666384428142    4.71104534779416
P         5.10497260156887    3.28263067158139    2.66327375509408
F         4.09013922079896    1.07622577686583    4.12673319310318
F         2.11093711252021    2.70587413150623    3.06158498529716
F         2.22247342123473    4.41712804865729    4.35823286455997
F         0.25561428960253    2.32536518456099    4.73786426818347
F         1.34444031252480    3.12810546961466    6.40417854268100
F         1.82258216793715    1.17969740149952    5.65396812150454
C         5.29410339643318    4.31986025761237    5.71115853480338
H         5.44245069332814    5.34221958351709    5.40268168329614
C         6.24168729296975    3.25824958489858    5.56176202283270
H         7.21701898841361    3.35055431184146    5.10904281909430
C         5.75322387308005    2.14224917049266    6.25244268693646
H         6.25507469823966    1.19695626845506    6.37781593128930
C         4.48812058646657    2.47877109022220    6.79586090589017
H         3.89865833227077    1.85304855960539    7.44614131635271
C         4.23893432441598    3.84609601738625    6.50588352717908
H         3.41794438564625    4.43423938009549    6.88102098427669
C         5.52496029080364    5.04810671691188    2.57200879856318
C         4.47179980743504    5.96080255795528    2.52457835895586
H         3.45457187373403    5.59708750843682    2.48898059017983
C         4.72899018005342    7.31882713703867    2.53523592730619
H         3.91002991374965    8.02103692803292    2.49274457554546
C         6.03538766293931    7.77723609982080    2.61060210043280
H         6.23619980721108    8.83808539366244    2.62205093935353
C         7.08279292741908    6.87389674769729    2.68414373370123
H         8.10008832298826    7.22967181349052    2.75686701625021
C         6.83175248557062    5.51275731201748    2.67219588331749
H         7.65223518116023    4.81222320340377    2.73894203680022
C         4.17057570360857    2.93321034215348    1.13875170407469
C         3.97034147851937    3.86894577140609    0.13168855294874
H         4.30762139893522    4.88858638488292    0.25052398615715
C         3.33109079090771    3.49068921381617   -1.03668389727672
H         3.17297322136193    4.22077712249440   -1.81713350781282
C         2.89507765594702    2.18802737267541   -1.20534446235065
H         2.39187061244596    1.90243340326535   -2.11719604231788
C         3.10122612566805    1.25309527410923   -0.20283646895996
H         2.75924363281772    0.23743739670331   -0.33139509742272
C         3.73981808971719    1.61977534424062    0.96549235610353
H         3.88830814503314    0.90585619453592    1.76150027216347
C         6.63057435114215    2.40611607134104    2.18073264776754
C         7.06389494584825    1.28363788926450    2.87308162938988
H         6.50434410110003    0.93494490387189    3.72755872672065
C         8.19356506467308    0.60338320185263    2.44996859256463
H         8.52766694201940   -0.27007372121985    2.98984008476207
C         8.89012934446538    1.03760672766574    1.33542879437652
H         9.77281320561766    0.50856074703177    1.00822038596923
C         8.44651289710395    2.14530109937142    0.62886209412180
H         8.97998097541672    2.47587606354504   -0.25015070081293
C         7.31632810728705    2.82416214374296    1.04206578838393
H         6.95928238268826    3.67833108336100    0.48300337211045
C         2.49645857831154    3.06405671626366    4.32198490485334
C         1.47676781472493    2.40999708245764    5.27589483391083

