46
CSD_code = FUYYOP | q = 0 | S = 0 | Stoichiometry = C20H18CoF6P | MND = 8
Co        7.38638937081231    6.57267740640941    2.82828105038138
P         9.35736971655580    7.59563735828194    2.79591923249023
F         7.79364427710564    5.96419999140678    5.44833655088176
F         9.33591121272881    5.15532889362021    4.20860496994632
F         9.06370949597286    4.56698442202310    1.74541455328756
F         7.39509321694687    4.22381750102560    4.26232820243467
F         6.97279193289852    4.26120199114606    1.43719052189595
F         8.01667678120046    5.79844062738210    0.34668771505466
C         6.14357988870723    7.95551407538605    1.75995752630537
H         6.33172835707346    8.54067777438150    0.87468817217794
C         6.31134942199763    8.41430849501628    3.10240227054425
H         6.64597302491777    9.40476663469809    3.37151348391758
C         5.79027706659370    7.44341786916217    3.96878630731652
H         5.68723725857959    7.52885623380822    5.03831906337366
C         5.34508016077851    6.35226307889311    3.17792755842797
H         4.80796287841623    5.48858921054193    3.53744916602571
C         5.50829743653044    6.71086070615385    1.80952261133418
H         5.15939335002896    6.13768860169059    0.96594388923271
C         9.31691610948684    9.21510462989164    1.95312308300251
C         9.02397762492420    9.21494666066011    0.59132592411851
H         8.82177495806945    8.27899730727737    0.08891138273951
C         8.98296401509053   10.40376799569247   -0.11185949823968
H         8.75609471743885   10.39726929816948   -1.16771137141135
C         9.22821714121001   11.60308820851125    0.53887811137791
H         9.19142702198485   12.53281090352850   -0.00881273239733
C         9.51896211633573   11.60695694500653    1.89223473990066
H         9.71218002635859   12.53951712499101    2.40171381244790
C         9.56347056565185   10.41814753126753    2.60133805487894
H         9.79456060565030   10.42900674345256    3.65673524428222
C        10.00604536296330    7.98021564784886    4.45234861674184
C        11.28776633703738    7.62360837168204    4.85512726582333
H        11.94678897639090    7.09331266759092    4.18719838841649
C        11.72276774087678    7.93171781542068    6.13263758770029
H        12.71864175402406    7.64707513414224    6.43834192247356
C        10.88815189227399    8.59000186819188    7.01908618502915
H        11.23111844157661    8.82166179471129    8.01623494425509
C         9.60550049467749    8.93752737533411    6.62750213447372
H         8.94408727161636    9.43899128697793    7.31833843465812
C         9.16582985350627    8.62971480505590    5.35459852540527
H         8.15783047791362    8.88095334407685    5.05929067027148
C        10.77006029600124    6.84204964345801    1.91753257056227
H        11.60415178770444    7.54471727271389    1.92749342350869
H        10.47857776551666    6.64452898882608    0.88740861909556
H        11.04323713851848    5.90110742355200    2.39018372451046
C         7.99905466315700    5.42736497921676    4.21514397880337
C         7.89757999613538    5.23140736176957    1.58768341258034

