46
CSD_code = FUYYAB | q = 0 | S = 0 | Stoichiometry = C20H18CoF6P | MND = 8
Co        9.43801378456310    5.32838892354207    3.54948336297524
P        10.77092627656940    4.45280407795839    5.08873562121595
F         8.14543423411900    4.45572397680299    4.43919403001969
F         9.71411564890407    6.91600677406426    5.85672828455495
F         9.44984708815078    8.05275216696357    4.04731543386738
F         7.16803487988816    6.33262774127897    6.01888302836558
F         7.29181020288754    8.36176257897989    5.34633079179689
F         6.76461093173877    6.82168810395106    3.95155536308410
C         9.78138122292879    4.06717088614356    1.88082485113779
H         9.88825282186950    2.99548019784239    1.83150155161573
C        10.84173264021586    4.99966435388363    2.03474169854476
H        11.88983332357967    4.75393109797024    2.11512679203974
C        10.30174030752163    6.29896961984339    1.92340584611026
H        10.85973327318612    7.22052764599623    1.88754792501460
C         8.90636147254783    6.17149132925880    1.69539285670083
H         8.22542190925112    6.97786860521080    1.47628916359211
C         8.59855458012261    4.79327141419273    1.64698387537417
H         7.62627268871217    4.37414146348711    1.44874460208367
C        12.36778488413162    5.23556990588080    5.46615658427049
C        13.24961693484560    4.61024894986026    6.34343598018238
H        12.98948326609113    3.65524351744168    6.77794977300765
C        14.45862543926150    5.20652155102327    6.64785855601020
H        15.14213749400495    4.71899943720496    7.32733042421136
C        14.79331159989520    6.42844491572494    6.08442551608882
H        15.73795678941614    6.89200611011746    6.32654595324002
C        13.91655882070510    7.05438615412883    5.21487819029255
H        14.17397361810712    8.00847227784501    4.77991493951939
C        12.70594658842341    6.45895428457407    4.90439252524175
H        12.01330413684849    6.94799689348826    4.23499230273783
C        11.21125897307684    2.76797281178453    4.56737139533607
C        10.21756815531846    1.79402231264337    4.62603772817092
H         9.23627035004842    2.06260700230444    4.98906363239682
C        10.48420371459347    0.50710232409688    4.19781857482004
H         9.71294718540314   -0.24714318606737    4.24646873569624
C        11.73815035015336    0.18616631540143    3.70063820977891
H        11.94612486046723   -0.81926290673266    3.36608766041598
C        12.72218059730671    1.15785784101326    3.62324273481549
H        13.69647463618273    0.91097992733224    3.22747312402883
C        12.46059866590279    2.44879898933908    4.04840270299789
H        13.22980129055520    3.20620773143686    3.98452811450253
C        10.04961666087515    4.15657970473749    6.74362367797745
H        10.53819021746691    3.29988201793522    7.20649039979201
H         8.98437571610963    3.96664531546463    6.62977242274329
H        10.18401518807285    5.04570604065601    7.35497647394384
C         9.04043511697840    6.88497064190312    4.64846710650893
C         7.55531146299826    7.09209216210915    4.99677148313772

