52
CSD_code = FUZFIQ | q = 0 | S = 0 | Stoichiometry = C22H20N2NiO7 | MND = 6
Ni        1.41935843658464    8.76470730765198    0.44113340610156
C        -0.17723984649387    6.96262963979621    2.01547657828529
C         0.03426939315261    5.87997701712674    3.04262709604208
C        -0.91313034538683    5.62630830468096    3.99740894218933
H        -1.82830999519910    6.20113832264536    4.01424990527812
C        -0.70365873593113    4.61475732546639    4.95691499514986
C        -1.65800758804333    4.32218782886992    5.95350385903936
H        -2.57629942673038    4.89214820439180    5.97402364063237
C        -1.42900734884263    3.33647835147093    6.87215653610037
H        -2.16513686835696    3.11627349671760    7.63197117044355
C        -0.23466688404312    2.59982414537235    6.83670862099621
H        -0.06959208690075    1.82386153863146    7.57049852659996
C         0.70932112201826    2.85928203196195    5.88263826743306
H         1.62932998647340    2.29288259942023    5.85098564876511
C         0.50443193993761    3.86798515550191    4.91856194974311
C         1.45883437743294    4.15058469000825    3.91713925399689
H         2.37273192302554    3.57471430292018    3.88259703984060
C         1.23515298760389    5.13378028209063    2.99504719987887
C         2.17741947592942    5.45217724274032    1.84345550938135
C         2.09833526795863    9.80463136713547   -2.06937355849028
H         2.08013155760512    8.76694116548334   -2.37629622008600
C         2.29676708161529   10.81595805361590   -2.99382429416680
H         2.43842340118177   10.57477447119702   -4.03476225750641
C         2.30380608306736   12.13077389399532   -2.55421262337056
H         2.45136665988039   12.94577702118566   -3.24581476880358
C         2.10723728130143   12.37854539443284   -1.20754365814459
H         2.08795711421758   13.39081166389793   -0.83805226536952
C         1.91425352308257   11.31111433153247   -0.33510969055117
C         1.67005374652903   11.45966925930954    1.10146334830849
C         1.84275986762175   12.63953952607808    1.82025239166091
H         2.18458363741851   13.53756265335696    1.33167177922590
C         1.58754880724504   12.63847752003695    3.18103086765354
H         1.71673582458819   13.54051493870016    3.75998391097044
C         1.17410644154173   11.46218134169883    3.78489539239479
H         0.97194673526652   11.41956666294557    4.84278289611298
C         1.02931650399149   10.32562780661748    3.00210256648340
H         0.72237439909714    9.38325761575982    3.43320770031746
N         1.91637191516295   10.03709787676306   -0.77449106015496
N         1.26440587333642   10.32983203636099    1.70137998531919
O         0.88970967474959    7.60118338757045    1.75506428428864
O        -1.29244332425892    7.17587746511382    1.53744389390959
O         3.26026010713406    6.00642212904479    2.08517392839427
O         1.72557870898726    5.14305372409961    0.71269459808290
O         3.59005095665389    8.51958773914671    1.40358926454458
H         4.38636090872839    8.44421614136323    0.87341960012095
H         3.45359437790156    7.60371435987488    1.77822304943222
O         2.14284876729797    7.10316918440848   -0.78122129017473
H         3.10515049457334    7.10670093532981   -0.74945619496813
H         1.92735684135546    6.23297968685721   -0.23791673491957
O        -0.59489768076689    8.48872080217205   -0.64040637234006
H        -0.41860114749393    7.73965733047553   -1.22037953077692
H        -1.04825092280206    8.07916472697104    0.15068291671414

