20
CSD_code = FUZKOA | q = 0 | S = 0 | Stoichiometry = C4H7B3BrMnO4 | MND = 8
Br        1.91432733601380    9.77695657693913    5.55471252789193
Mn        1.91468104537624    7.00485121615592    0.73980644297868
O         1.91414838444199    4.67679285394392    2.54137849536172
O        -0.18071385913952    5.71316536995735   -0.84704488856533
O         1.91442431107450    9.26262788063885   -1.15236586278806
C         1.91458756136940    5.60468750135788    1.87703473653136
C         0.61508200278195    6.23276856572725   -0.21299146227168
C         1.91493582117327    8.41607021979355   -0.38999879548961
B         0.90778571702852    8.74497188425279    2.83868414607530
B         1.91450826071640    8.38783654161028    4.28013902154059
H         0.78438251835598    7.82905029647066    1.76196021280336
H         0.07530548888846    8.31196301748971    3.57849921910117
H         0.63345470022373    9.81085555035283    2.43049705490597
H         1.91479165563596    7.29987673798126    4.72570918836921
B         2.92039281699250    8.74539220521343    2.83816025174133
H         3.75331038024960    8.31215131243269    3.57728109076342
C         3.21414351374973    6.23253154442114   -0.21297900613012
H         3.04504020462782    7.82891095143485    1.76211747366891
H         3.19558827810024    9.81102126047631    2.42993637163956
O         4.00982386233937    5.71241851335067   -0.84673621812767

