62
CSD_code = FUZSEA | q = 1 | S = 0 | Stoichiometry = C30H26N4NiP(1+) | MND = 4
Ni        5.06832289840554    5.34403101320333   10.77505302991963
N         6.19353250642530    5.45144402045530    9.29873082039555
H         6.44535389295437    4.57102644603737    8.84625819720470
N         4.07718878588993    5.37167532897716   12.54489637175737
H         3.23243640094081    4.80901934863673   12.67317628935906
H         4.76945560715264    4.98682039410713   13.19965027949664
N         5.14842109804929    7.20528169468346   10.95177675049550
N         5.72671988462921    8.07914517862406   10.24261820497068
C         6.71347946973572    6.50376015722424    8.69177058176099
C         7.53770910421748    6.37751250979890    7.54266049527359
H         7.73676134135368    5.38248864442340    7.16996309941891
C         8.06996655864329    7.47191601236071    6.92927623302313
H         8.69557409057481    7.34390295138021    6.05906949774167
C         7.81952501601285    8.77558960531155    7.40790202375062
H         8.25513247968424    9.61949012725404    6.89829668343062
C         7.03584049105123    8.95492844413693    8.50503493649126
H         6.82588522681637    9.93599244870578    8.89955720859515
C         6.46733937547089    7.84256425877436    9.17663059370686
C         4.42824191856333    7.69742451855216   12.04931237502970
C         4.27346373976498    9.05755230646174   12.32527440094886
H         4.74742975958888    9.78351276013684   11.68489345385457
C         3.50186740118284    9.44441162866047   13.40262099416865
H         3.37341514320272   10.49424044592146   13.61329481774097
C         2.88250353675358    8.50054208190472   14.21028841058878
H         2.27546498361081    8.81663947928522   15.04330746451580
C         3.04375349767375    7.14830279009824   13.95304877033688
H         2.56893772268787    6.40920574343832   14.58176738190671
C         3.82083298550429    6.75252776434762   12.88012291840166
P         4.61896966023948    3.17980778740855   10.49854612663441
C         4.67170893945844    2.19697674901137   12.03065188067592
C         3.59802184507357    1.47156572813886   12.53235158255579
H         2.65630279812941    1.45484410013962   12.00305022161319
C         3.74038207731938    0.76699644543625   13.71638314689849
H         2.90791106259176    0.19798103802540   14.10126796408068
C         4.94215290566109    0.78870631793385   14.40515506524677
H         5.04670124364350    0.23336429619730   15.32416681167475
C         6.00965658433844    1.52921717763685   13.91912628403898
H         6.94405365063651    1.55353836824813   14.45903676633901
C         5.87222924798163    2.23802666178174   12.74092874587596
H         6.69519950395628    2.82907108650811   12.35361795135751
C         2.90808362701076    3.07779776014134    9.89374351372697
C         2.33479775665681    1.87218200311593    9.49911942419884
H         2.91304638891369    0.95972062893461    9.54502271014265
C         1.03107459902105    1.85508621705883    9.03878335536363
H         0.58169339688836    0.92151556159436    8.73641682985640
C         0.30267639843406    3.03282467577176    8.95901684865167
H        -0.71361290495435    3.01165346876177    8.59729489830941
C         0.87911258070081    4.23797000745705    9.32747209215328
H         0.31692112144302    5.15580924525922    9.24656754808308
C         2.18121757265902    4.25997547219638    9.79256866276618
H         2.65897822762891    5.20405197846975   10.06184706433455
C         5.49099398400872    2.15638269143203    9.27318779767310
C         5.34733364990873    2.53082341543902    7.93559578936601
H         4.70974596494787    3.36987587010870    7.68249390327082
C         5.99310419664043    1.81864085625015    6.94323658353667
H         5.87402604918628    2.10644901307251    5.90968490588216
C         6.79054887343669    0.73445944872507    7.27790200121161
H         7.29486851797662    0.17774782980955    6.50348365499957
C         6.93726392797552    0.36336510948438    8.60437721506828
H         7.55417587893961   -0.48355684824414    8.86306718566224
C         6.29526390693918    1.07269259524531    9.60527747724519
H         6.41224185008863    0.77648914057487   10.63750570722523

