33
CSD_code = FUZXOP | q = 0 | S = 0 | Stoichiometry = C12H12N6S2Zn | MND = 4
Zn        2.92932890329647   12.93822983910652    2.27259576380116
S         0.34144165733093   10.90205981437869   -0.91063151960315
S         5.52030821593620   16.34439179288923    0.64039628749413
C         0.68633163403979   13.55312036223547    4.21967365141555
C         0.11706984206621   14.17304701092946    5.35124259496964
H        -0.92130347364880   13.99128137395608    5.58074852494875
C         0.89011198035571   14.99255450631705    6.13222548389802
H         0.47084610093561   15.47812553582327    7.00034503118604
C         2.22709069384804   15.19225014945246    5.78455963701708
H         2.86566029733957   15.83181328820977    6.37014650079649
C         2.71247727799774   14.55713379160832    4.66727683191209
H         3.73713300670606   14.69075995935581    4.35272521859749
C         5.17622908854441   11.36582579465239    3.57329081042014
C         5.73910474936342   10.23814915138968    4.20647234401401
H         6.78524740053683   10.25357394534160    4.46961841455302
C         4.95009271050548    9.14918057556087    4.47176458426658
H         5.36396265757217    8.27616266350895    4.95315504094623
C         3.60351131482575    9.18573417498964    4.10585735226578
H         2.95203797844916    8.34907638695307    4.29373350740254
C         3.12537676800135   10.31667059835402    3.48990047182183
H         2.09331347314709   10.38592404408320    3.17901586709679
C         1.14838615682542   11.63024594407831    0.21780520095038
C         4.71486393106917   15.12859358913352    1.21305835764160
N         1.97339355796461   13.75417045123464    3.89376617800706
N        -0.03146066801383   12.69922197161133    3.46701209236278
H         0.35082825001261   12.41671903028483    2.57040005744523
H        -1.02894358498122   12.66508525181390    3.58387435123851
N         3.87989886717647   11.38870489669910    3.22346093377092
N         5.91166745450515   12.46979516413341    3.35083769913675
H         5.52505725618917   13.19020237751548    2.75013971312635
H         6.91051085335865   12.42178125155814    3.44798358696381
N         1.69104789298273   12.16510224210120    1.12554283567554
N         4.16757775574474   14.19811307072333    1.70200659445846

