36
CSD_code = GABBOB | q = 0 | S = 0 | Stoichiometry = C11H17NO4PtS2 | MND = 4
C         3.43490145550926    5.17187080961199    8.60676527086842
C         4.19828997015257    6.23587388482767    9.26960180070331
C         5.54930268049081    6.42571549896962    8.98358092241686
H         6.02040218477911    5.77462488442452    8.26544160109239
C         6.25562886496041    7.43042731976322    9.61526422328308
H         7.30288759595678    7.57442181766860    9.39164184208967
C         5.62792117694785    8.25599039113659   10.53610589170655
H         6.18437882379920    9.04064051923657   11.02813728896396
C         4.28583953471200    8.07207916571798   10.82321466521730
H         3.79387049975379    8.71445650370409   11.53981927470065
C         3.57328817762198    7.06803153635628   10.19477615511678
H         2.52652436533486    6.91428090120095   10.40885654912317
C        -1.41199042283307    2.45178258193592    9.83989432029263
H        -2.45502966648001    2.65863600688284   10.04691841059483
H        -0.81154697801120    2.47850528741164   10.74089477937660
H        -1.30887597700085    1.49483659084551    9.33762691528112
C        -1.07873896794781    5.18626121177300    9.72237301501901
H        -0.81146571445851    6.05416710611495    9.12941230542678
H        -0.43176122822798    5.12150222549019   10.58892583609905
H        -2.12506917219285    5.22722841348719   10.00180936977033
C        -0.21292849777430    2.29758626024021    5.16804074713788
H        -0.55822128634798    1.41711104141204    4.63907973315952
H         0.46971429465208    2.88559119975563    4.56618290328806
H        -1.05847916712322    2.89837380262286    5.49066034381964
C         2.00486309649776    0.81707437708209    5.90456543469170
H         2.48533829445753    0.24958575913073    6.69359614154655
H         2.70965259896241    1.52495617386953    5.48348581005847
H         1.59742611128791    0.14956026381761    5.15440899718924
N         3.99361327656702    4.43123425498666    7.72888378394222
O         3.21376644713987    3.47754975591198    7.16140405931009
O         2.15029264694169    5.02739402609890    8.96738274644753
O        -1.69803567365233    3.77593730131373    7.56759513623631
O        -0.19252781248117    0.86519430328962    7.39463605617752
S        -0.77276657654563    3.71325799985848    8.69439589701372
S         0.67172504837698    1.78797278880965    6.66708262705440
Pt        1.36570999617148    3.51898803524681    7.90803914577886

