37
CSD_code = GABBUH | q = 0 | S = 0 | Stoichiometry = C11H17NO5PtS2 | MND = 4
C         8.59542656885739    3.38287105645200    1.71321413909803
C         9.30005558342777    2.28514432564142    2.38651463589655
C         8.60982451928386    1.48507524825695    3.29474063707376
H         7.56779635731102    1.70355450781336    3.47237174712118
C         9.23558516225819    0.44383129621046    3.94831089799537
H         8.68589014834167   -0.16627085896809    4.64918669186065
C        10.57549279279513    0.18717423243171    3.69781740236460
H        11.07507215147763   -0.62560608777402    4.20420684449679
C        11.27730752943783    0.96696223996421    2.80158729456171
H        12.31960515457592    0.77977870323333    2.59574328438062
C        10.65882392329021    2.02341788364478    2.13301789380288
C         4.06929639482942    3.45985681494308    2.59196303934997
H         3.00976607393250    3.43814811966187    2.81919917576017
H         4.67410308206987    3.48156873381631    3.49060320581587
H         4.34341079217793    2.60268198241001    1.98646846207054
C         3.81019206855063    6.20033613018860    2.78169453228788
H         3.95979352278237    7.16815203688583    2.31297244022765
H         4.37205905248825    6.13011275441489    3.70501642182104
H         2.75418008899827    6.01787832483834    2.94062045182741
C         5.20321044962931    6.44371149618269   -1.83647323671482
H         4.32739021510810    5.85975327066420   -1.56853794020955
H         5.89554249082602    5.85226449828190   -2.42369549287448
H         4.90718456881943    7.34756312639689   -2.35573552587237
C         7.42550866691183    7.84098085570979   -0.96072751390898
H         7.06695792944448    8.55390782483583   -1.69387072360503
H         8.12004266968810    7.12773521065803   -1.38952152743238
H         7.89797111499732    8.35710941915632   -0.13254932189911
S         4.45875010905081    4.95402204439980    1.62695815441377
S         6.03310648640910    6.88873313062642   -0.28733075808505
O         8.49955386510161    5.12443923725945    0.28057456976032
O         7.30724644884471    3.56286650087230    2.01144056009295
O        11.39413573847449    2.74491990319223    1.27387511443146
O         3.58519435856401    4.95377080965571    0.45855547234996
O         5.16413199461998    7.81371200681233    0.43037867752798
N         9.22047566837225    4.12432845043350    0.87522181980493
H        10.81972815240107    3.44722117845513    0.88730958297186
Pt        6.62528810583865    5.11359359233497    0.94237889143877

