74
CSD_code = GABDIZ | q = 0 | S = 0 | Stoichiometry = C31H19LaN14O9 | MND = 11
La        2.02086583193134    2.66391708119317    2.51776915753306
O         1.73553755336392    0.37305203234777    2.24360699742226
O        -0.02768417705863    1.53509016415232    2.23237983919033
O         2.48545234979004    3.74878130425408    4.51303693210785
O        -0.08150875650973   -0.45551971642629    2.95777163869381
O         0.50369246299313    3.90254131328867    3.78572734020212
O         2.51781641144419    4.75542425431686    1.92307476494625
N         3.61894894406904    1.21924194357062    4.11857321400868
O         4.22824936218672    3.67028458706543    2.52783991267092
N         0.16571154542053    3.76912441649572    0.75131301275612
O         0.90042484503085    4.16272383296844    5.84890861256128
N         4.24821312544879    1.28985000795665    1.49658341608080
N         2.37891420317011    2.35776932760098   -0.16854423783177
N         0.53234880210785    0.46607204341112    2.50007425702130
N         2.86367700208822    2.24585733069094   -2.80773239171412
N         1.02728266783447    1.49415062494377    4.86966252525171
N         5.57323316484790    0.88718111720643    5.87689250675179
N         3.60393098788885    1.56822294617471   -2.00252902266909
N         1.28236764653244    3.93453943652615    4.73383705835508
O         4.18008830755057    5.77997050170084    2.74997550464424
N         5.77097823967702    0.53054834020936    4.66308057441349
N         5.13372267914834    1.51645856915937    8.58486353045149
N         0.56169085291980    4.94036436807774   -2.82875163246275
N         3.65263877418428    4.75889890945065    2.42568843031345
C         4.51703852789332    1.28538812996847    0.19672441938821
C         5.19626120979782    0.88899167934368    2.33675215207432
C         0.18395935985752    3.27940547071766   -0.49041714678668
C         1.92943173912734    1.17386758829429    5.80729241429905
C         4.85878620663925    0.91253752569105    3.76002717041591
C         5.74137052702385    0.86346761639404   -0.32789554162146
H         5.89354239907044    0.87927237801206   -1.39504335418589
C         3.46100660400334    1.77294824474708   -0.69248568043922
C         1.25175474048298    3.91935280029224   -3.33291729326411
C        -0.25782980484915    1.41721169535566    5.18360353026458
H        -0.95178195183071    1.71503187754647    4.40772825240014
C         1.49774788744602    2.88754773665171   -1.00445434827404
C         4.37808565989724    2.03412980523303    7.61992727438975
C         3.32998940659704    1.30438787717361    5.40796569599874
C        -0.98529238833160    4.22030746251353    1.22516003749345
H        -0.95030563917795    4.64260617915848    2.21945563702091
C         6.72355768715419    0.44298523822506    0.55286279390412
H         7.68407982634512    0.11358303853885    0.18614050797839
C         6.45626946339887    0.46188324298911    1.91095739303042
H         7.18342946227851    0.15699343626378    2.64605870757098
C         1.87437487734638    3.00790794880990   -2.37499252085689
C        -2.17450250768495    4.16042260281183    0.50996852441209
H        -3.08628503680460    4.54701798392462    0.93712902422440
C        -0.96665800932341    3.13410495775504   -1.26575730245509
H        -0.91869702106035    2.66644129753928   -2.23718196496038
C         4.43921877611725    1.40317019631204    6.30345361283166
C         3.55745541611404    3.74903688956420    9.06061712467388
H         2.94529997227145    4.61987215539745    9.24047943068984
C         3.56862741184208    3.15774080215447    7.80965553867347
H         2.98519867773448    3.56400959835047    6.99904915294287
C        -2.16912332544040    3.57730057917779   -0.74698764374655
H        -3.08113583605811    3.47409908029431   -1.31621349757143
C         1.56679439495436    0.72282592331334    7.07505260678739
H         2.32523698812174    0.43775213149839    7.78711842494277
C         1.42254978174194    3.72800224871134   -4.70521959476233
H         1.99571675065263    2.88625981996845   -5.05789334397649
C         0.01828093859432    5.80234626488595   -3.66184990185006
H        -0.52448452632287    6.61439290506615   -3.19698353494631
C         0.84112292332273    4.63792313381297   -5.57108198929969
H         0.94963094331435    4.52220666937085   -6.63943747630567
C         5.10986868477709    2.08876278558391    9.77146594355053
H         5.73743562006283    1.62407650681874   10.52053657716362
C         0.22137810980859    0.63484522686983    7.38485351327367
H        -0.09154037689849    0.29154393369472    8.35945423127435
C         0.12176284124338    5.69973797809583   -5.04408585019366
H        -0.34422847875926    6.43130998378079   -5.68494517549691
C         4.33954256057671    3.20548707193969   10.06880523249107
H         4.35409746809279    3.63564953996725   11.05796117039638
C        -0.71006948239428    1.00035701657967    6.42683009951236
H        -1.76726228487053    0.96435300855144    6.63255502623933

