35
CSD_code = GABKIF | q = 0 | S = 0 | Stoichiometry = C10H18Cl2O2RuS2 | MND = 6
Ru        6.52543394900392    1.82202285044447    7.35161374339920
Cl        7.13092945519905    2.81224285969261    5.29149547058006
Cl        4.26025507023299    2.20549660124005    6.94841430799820
S         6.50971278921698    4.11405733590850    8.19906484121242
S         5.59180683871727    1.14742758275069    9.55274992486646
O         9.40867872679090    1.42919435360297    8.04279428631028
O         5.93853097953931   -0.70889475533949    5.86856671117954
C         7.39504389128475    7.08873206299273    7.33749986422656
H         7.44069139959262    8.14498956065814    7.58893087280040
H         6.35754129156813    6.76648607719086    7.38336604603687
H         7.74567963596252    6.95907664667099    6.31684644999381
C         8.25010670155332    6.27262677240560    8.29717729604792
H         7.92126824342206    6.44093593945216    9.32579434977325
H         9.29206017924378    6.59303684494489    8.22593751116473
C         8.19100308103563    4.78839606346356    7.97163940566712
H         8.88161440427419    4.20751961584471    8.58365766289670
H         8.40255286352221    4.61150149570697    6.91418589265073
C         6.48327058073521    3.78069994326156   10.00939206319317
H         7.46140219135881    3.40055282852719   10.31042208860791
H         6.28920148407900    4.72604913561437   10.51914741900135
C         5.37078464045484    2.79896907674502   10.31372463901081
H         4.42687111463839    3.15510040430666    9.89420842537774
H         5.25825785234648    2.64133272303657   11.38703322670424
C         6.94701925071241    0.46075107928528   10.58508646069033
H         7.79207678249356    1.14835408877842   10.57613369851469
H         6.55922931820389    0.36516401935675   11.59959497829791
C         7.35274729995225   -0.89369161676525   10.02352298073417
H         6.51356674447164   -1.58500788260361   10.11285037912934
H         7.58060497935123   -0.78010319286074    8.95759755266914
C         8.56952054936340   -1.45096811438308   10.75207878921702
H         8.83579941939068   -2.42161263781340   10.34434036894415
H         8.36254950463450   -1.56782019002244   11.81326814825132
H         9.42196852312125   -0.78618699605424   10.63523175098051
C         8.30694463148768    1.56790333394147    7.75705914871130
C         6.22517563304092    0.20546609002016    6.47757324516392

