23
CSD_code = GABKEB | q = 0 | S = 0 | Stoichiometry = C7H8Cl2O4RuS | MND = 6
Ru        2.82350741969986    2.93323978081447   19.05366578052555
Cl        4.78197912081584    3.16408923892457   20.35320355458684
Cl        3.77212612777617    4.28262772836277   17.36602323775631
S         1.86670827910786    5.05700949153181   20.09452127773522
O         2.26065669243804    8.07090702897434   19.32488545818640
O         4.85175943584336    1.03219125197996   17.91313273640476
O         1.96892552254774    1.30584216032534   21.43350437109860
O         0.52607255697661    2.71487195471708   17.12905527591251
C         3.36803903733751    6.08737620401313   20.22671883298989
H         3.93675068674471    5.71290270701144   21.07630730489184
H         3.93807184974822    5.96498282015406   19.30251085838081
C         2.94815636160733    7.53773743425978   20.43106740798852
H         2.32979223987634    7.62014778059501   21.33878043696452
H         3.83970987812014    8.15829729376680   20.54725300308901
C         1.02340619641757    7.45070650282784   19.08834813974317
H         0.56657436111071    8.01108927762458   18.26905795920445
H         0.38079417001833    7.52619546069730   19.97990898894189
C         1.16073906085276    5.98467346501734   18.68416646128833
H         1.84065591577728    5.87296766919370   17.83604699275007
H         0.18770248954098    5.54826466277506   18.46503478481036
C         4.00944519552943    1.66250036659576   18.32820190376840
C         2.22172580822123    1.90991635764000   20.50764840473068
C         1.36200159388930    2.76946336219755   17.89715682825101

