98
CSD_code = GABLAZ | q = 1 | S = 0 | Stoichiometry = C52H40CuN2OP2(1+) | MND = 4
C         8.38563827339168   -3.74837773235468   13.97555409835606
C         9.03876178031281   -2.58163806170446   14.36978712331391
C        10.38424365757623   -2.60675435575567   14.68236464143289
C        11.09154384815044   -3.79534704440705   14.58738264740043
C        10.44895235908997   -4.95483865816414   14.18631584693824
C         9.09829862487308   -4.93719512917877   13.88206127991413
C         5.83896700053522   -3.77464435659643   15.21992967928254
C         6.50815269860497   -3.46325670530951   16.39832158416827
C         5.85507200410415   -3.56704842286311   17.61445423638274
C         4.53327412118988   -3.97648424684970   17.66631215134752
C         3.85741932512519   -4.27455814281589   16.49324320385716
C         4.50120217702565   -4.16329229120063   15.27506556339091
C         6.23581489570682   -5.21715521481271   12.81855475279290
C         5.81630083754306   -6.35188690192061   13.49959567025602
C         5.48806113060334   -7.50088680424154   12.80046333182726
C         5.55534702222656   -7.51797257319245   11.41791872507268
C         5.98590665060040   -6.40222017500218   10.71989530030902
C         6.34742688568065   -5.26529937211209   11.42274262187442
C         6.94085429236887   -3.92027180365114    9.51045890978862
C         7.79113604401962   -4.65937148336118    8.70880333329553
C         7.92067068587784   -4.30527639189239    7.37363265208515
C         7.22583412597988   -3.22316056984081    6.85926849616044
C         6.38566999997758   -2.47418369641315    7.66832387903612
C         6.23097594231376   -2.82831394381473    8.99941064606999
C         3.91798152691260   -3.30565274641032   10.47810020807558
C         3.52486180678297   -4.14784576941874    9.44270519091614
C         2.57925847126883   -5.12884270032289    9.67904910167482
C         2.01840330779386   -5.26920315153318   10.93856422280950
C         2.40067115144990   -4.42467535615179   11.96771945678834
C         3.35572076418099   -3.45027459060999   11.74162649646530
C         4.38335114109647   -0.69853410873224    9.36860883447863
C         3.00643344508087   -0.62568196662873    9.19483178242717
C         2.44907712717460    0.48185187185255    8.57938483054860
C         3.25519231557128    1.52376680545365    8.15058773351333
C         4.62794262446124    1.46229521060955    8.33700090341985
C         5.18938231752563    0.35960199133836    8.95049093821471
C         9.37903641759425   -2.04250947717267   11.37209049853239
C        10.69139018944109   -1.60670018227104   11.30796362793815
C        10.94183396752448   -0.24848235131134   11.44272149763458
C         9.87565523084878    0.61857384131414   11.60768704084317
C         8.58554124093853    0.09486813572997   11.64379358091075
C         7.37939805733550    0.92191195690164   11.77680243194116
C         7.31279941492843    2.23361050256536   11.31746737654398
C         6.10615909164605    2.90823618967480   11.40783708859395
C         5.00933899922337    2.25918241007820   11.94660160582436
C         5.15076024933983    0.94631916869863   12.39315492433180
C         4.02694758425032    0.22097466709994   12.99961705154397
C         2.74684672915357    0.31423710292571   12.45884029271979
C         1.69153371326638   -0.35345550235698   13.05238961485101
C         1.89585349852516   -1.09035896726041   14.20745738408499
C         3.16484259435780   -1.17794901899455   14.75740836082774
C         4.23129333050665   -0.54458220912368   14.14631028212808
Cu        6.42032949543477   -1.74329040074265   12.23795694779404
P         5.20704274383214   -2.03523937280934   10.28053139082663
O         6.78929915170405   -4.10034569312163   10.86698169386160
P         6.61373903554108   -3.59893776520214   13.57796377900797
N         8.35945140687557   -1.21846043728193   11.54053165482180
N         6.31705186041093    0.30727041752333   12.30757281511036
H         8.47663056101047   -1.65638829549135   14.42356680849099
H        10.88383233606929   -1.70222302261569   14.99670957167263
H        12.14348681413120   -3.81715042733503   14.82784345826053
H        11.00098757526659   -5.87994740719695   14.11448190747341
H         8.59980426357196   -5.84526389648962   13.57350264952745
H         7.54299012337954   -3.15416203170955   16.37041350037557
H         6.38410149766366   -3.33341633451437   18.52612505184252
H         4.03050810046772   -4.06307801574526   18.61732758397160
H         2.82512980124875   -4.59033110164057   16.52922532818710
H         3.97644922243005   -4.39067365259610   14.35796175007151
H         5.74703141779247   -6.33646045414067   14.57702405268017
H         5.17011358486246   -8.38118861263283   13.33651742668789
H         5.27543092327875   -8.40638684581553   10.87352787393210
H         6.03122606985329   -6.41315307976299    9.64153205186385
H         8.34677753414144   -5.48984468453796    9.11879297843356
H         8.57486003844751   -4.87799183333934    6.73479497392907
H         7.33797175476264   -2.96009197319761    5.81872547484213
H         5.84388637349976   -1.63130525850283    7.26446981822954
H         3.95634962166703   -4.03229852220137    8.45746265485045
H         2.27471456078413   -5.78382049696101    8.87632606707833
H         1.27998120101374   -6.03610568436778   11.11570551331299
H         1.95388196171983   -4.52924711815820   12.94574312481482
H         3.67860722886079   -2.78892557382383   12.53726227871410
H         2.37664067652541   -1.43458482497965    9.53765364278642
H         1.38001140753404    0.53304366663704    8.43589212108416
H         2.81447748065495    2.38557391541207    7.67318306936650
H         5.25672980238477    2.27564783123105    8.00600769304948
H         6.26012204886269    0.30151941852920    9.10783827823221
H         9.13109860561314   -3.09028703211900   11.27978970284386
H        11.49400221672798   -2.31108093719010   11.16350235563748
H        11.95248282929421    0.12934343581815   11.41760739651955
H        10.04128000577775    1.67706834612853   11.72817266321907
H         8.17517536304811    2.70446882942765   10.87450919910681
H         6.02300324307077    3.92575601823236   11.05822520687250
H         4.06012302813672    2.76047419544894   12.04330224566613
H         2.58552680671855    0.89427792872747   11.56230668120567
H         0.70425605579721   -0.28611819220998   12.62124898533619
H         1.06571812005877   -1.58996825059147   14.68296296986384
H         3.32489474235632   -1.73795955930567   15.66562474559447
H         5.22166061633233   -0.60956489325184   14.57492012987652

