105
CSD_code = GABMEE | q = 1 | S = 0 | Stoichiometry = C55H44CuN2OP2(1+) | MND = 4
C         3.36098105781647   12.37734910045906    1.10183926440350
C         4.10264898124872   13.22031966084445    0.29204985290938
C         4.94871954996227   14.13821926192772    0.89956091810837
C         5.01186015105747   14.18387469940867    2.28091134242708
C         4.21551089430664   13.31198916577965    3.02220712285358
C         4.20312836810993   13.28387827965167    4.49026469736494
C         4.62029585496106   14.35853710315876    5.26991184702923
C         4.56514068585871   14.24065515045038    6.64792343210694
C         4.12769360144600   13.05254327255414    7.20621222931083
C         3.72593472841399   12.01489997309754    6.36613495396180
C         3.31688037943500   10.71011748999807    6.90273472558539
C         2.59545541847613   10.60933289081334    8.09118063131655
C         2.23641169438223    9.36791255992631    8.58489988474844
C         2.60662337922278    8.21533959974059    7.91124889165362
C         3.33676150219504    8.30633814948075    6.73678632929714
C         3.68341286664270    9.54486124034436    6.22998273702672
C         0.83327231749894   13.95875538615355    4.89702109002361
C         1.49940190836134   14.85748276324131    4.06303876939656
C         1.92475162060296   16.07893095752733    4.54672338055987
C         1.71336365910532   16.40920033553330    5.87616394727320
C         1.06433976423588   15.51669481403134    6.71227770462076
C         0.62709783111047   14.29538862109970    6.22956429205033
C        -0.86169970570812   11.66764547228070    5.26446477666339
C        -2.18313328901379   11.54271575242275    4.85289583194237
C        -3.12441308907078   11.00930622106985    5.71582409053942
C        -2.75889999515392   10.60171152495778    6.98768283755881
C        -1.43890254338674   10.71021379946215    7.39641258542180
C        -0.49206611121964   11.22778351031780    6.53405735755719
C        -0.43886755494307   12.76350726478995    2.67995320056309
C        -1.07543644058866   13.97553676781533    2.44525149627349
C        -1.66483267282525   14.20433101665059    1.21617679626048
C        -1.62731661460206   13.23952375608786    0.22195797201744
C        -1.01946898219139   12.00874809363853    0.43306263134286
C        -0.44100360351134   11.78864197040880    1.68038964506764
C        -1.02425351126992   10.87443688792034   -0.57830720287524
C        -2.24392107871471    9.98238035155890   -0.26688559605924
C        -1.12383406306616   11.38097827442756   -2.01708141784798
C         0.21715375382026   10.03023352921715   -0.34939093633272
C         0.86981881683826    9.29681252796685   -1.33407915171463
C         1.93427433587911    8.46463276546641   -1.02589358964138
C         2.37124832352358    8.32162973379408    0.28006918966610
C         1.74272130661469    9.04484373548930    1.28209528157729
C         0.69000531580253    9.90112142615964    0.95054876678501
C         3.46954936633117    7.83728824720902    3.14751812447967
C         4.74569516192727    8.30076398797192    2.83429875071775
C         5.82792104221282    7.44326624012583    2.88144135734933
C         5.64242957619329    6.12110511126630    3.25646946824824
C         4.37706615094093    5.66124297297126    3.58279350865044
C         3.28811017822987    6.51503311449453    3.53239619129870
C         0.68167089714243    8.19354606714718    3.72432941434214
C        -0.08478707835562    7.31261092505490    2.96679134201882
C        -1.17940450884948    6.68991532742370    3.53855653448796
C        -1.51159821202627    6.93551760941430    4.86168081065148
C        -0.74816369357654    7.80927242315546    5.61790857075974
C         0.34109558716693    8.44200243603220    5.04878190307204
Cu        2.44796283191987   11.17026517080941    3.80577106782959
P         2.13204555752176    9.06513431750898    3.05585095905773
O         0.18790339866527   10.61819122255812    2.00092212310082
P         0.46051787397887   12.31836100195888    4.19773133013018
N         3.41431564564677   12.42650166038997    2.42159204390257
N         3.74738039997974   12.15241758233305    5.03919241059403
H         2.69912092398224   11.63329911268444    0.67847229562429
H         4.02488529307464   13.15628924012467   -0.78093388472273
H         5.55418303936121   14.80412515709670    0.30392164416376
H         5.68101183818585   14.86998000795861    2.77355983529001
H         4.95819908944780   15.27376095859559    4.81381299692690
H         4.87404140900326   15.06033777803287    7.27787806914105
H         4.12131547463172   12.91596638932648    8.27531869978644
H         2.30195680898465   11.50391813699309    8.62185045364748
H         1.67248907784961    9.29968506851810    9.50295868971308
H         2.33206776695560    7.24850161029082    8.30395627423645
H         3.63886299812032    7.41151116518082    6.21382249047899
H         4.27077528995546    9.61839626958609    5.32605715407421
H         1.66411957148486   14.59562179614464    3.02524210924785
H         2.42190908030467   16.77512584416012    3.88715654302491
H         2.04780986725564   17.36220036906917    6.25653788673088
H         0.89131085549133   15.77473330911816    7.74641744980131
H         0.10711860870911   13.61363119909919    6.88653436758843
H        -2.47802587146103   11.86542630815150    3.86475000191130
H        -4.15087788981740   10.91646024983803    5.39415775967457
H        -3.50037450847287   10.19392981068198    7.65776125648886
H        -1.14700220127210   10.38555448493514    8.38450967979068
H         0.54630458526843   11.28683517199456    6.83380804155846
H        -1.10120802849995   14.73063593318340    3.21669637742788
H        -2.16191728221153   15.14318554510043    1.02730787294121
H        -2.09343213593506   13.45593877026129   -0.72485139401679
H        -2.26938422183956    9.13461517564110   -0.94765510199120
H        -3.16246867095639   10.55314920970343   -0.38216080895524
H        -2.19650039209881    9.60489595275773    0.75335000513133
H        -1.14821914338265   10.54630191989414   -2.71127743983154
H        -2.04426056846963   11.93858100835793   -2.16164518562747
H        -0.27976420440786   12.02177951961838   -2.26290792793071
H         0.54626552656058    9.36275689579464   -2.35955436057441
H         2.41749474200269    7.90878127981023   -1.81439699855467
H         3.18968312604144    7.65962326510755    0.52025949361499
H         4.87127296119315    9.34041061634683    2.55258079711170
H         6.81555637131820    7.80155198606472    2.63208214148116
H         6.48669318527909    5.45009971012737    3.29791997309621
H         4.23716188698543    4.63222358319758    3.87857089449411
H         2.30144348549835    6.15723850132645    3.79047660160763
H         0.17469584832561    7.11436713915712    1.93583080676147
H        -1.77469414025470    6.00739461891055    2.95025292243977
H        -2.36624423827897    6.44452953490313    5.30171843561803
H        -1.00456658345690    8.00294926832103    6.64837576253899
H         0.94132238283708    9.13371085389810    5.62290879955155

