33
CSD_code = GABMOM | q = 1 | S = 0 | Stoichiometry = C12H13N4O3Pd(1+) | MND = 4
C        14.14664976309068    1.91227498945164    6.26946706759057
C         9.75415626805508    1.39542221268733    7.95509112091515
C        15.23825151759147    2.23289016435790    5.47828543006688
H        15.11125018368258    2.39062394181577    4.41904470003032
C         8.37741863600664    1.42688997591220    8.10941307957540
H         7.73796240711922    1.51876530640456    7.24590433979658
C        16.49129465351005    2.34286316451777    6.06584707165075
H        17.35299874919893    2.59192917215040    5.46706446269814
C         7.83693102396687    1.33438204659875    9.38489259620922
H         6.76794179720638    1.35737655972662    9.52574683976749
C         8.69269753893408    1.21020443144863   10.46760630235247
H         8.31390629385370    1.12889371570510   11.47301018210433
C        16.61343060196047    2.12494124419486    7.42881645799872
H        17.56875980410650    2.19316294529083    7.92239995936738
C        10.05977522867807    1.19238182195979   10.24074224862569
H        10.75953569420786    1.08423977499081   11.06104499594774
C        15.47810578990671    1.81517037167167    8.16069421934356
H        15.53603668311326    1.62611081367584    9.22615336326395
C        12.75689428422955    1.71198710752556    5.69922856375772
H        12.62739090081926    2.29744145727645    4.78043455175076
H        12.64740782220755    0.64887383343932    5.44435119203760
C        10.42416223315657    1.43045357400751    6.59624962095381
H        10.55610167748932    0.39320595346974    6.25861733854777
H         9.79106727396147    1.94885577573652    5.86533355848360
N        10.57501843719859    1.28367408993865    9.01693250390427
N        11.75282583974806    2.04980632317208    6.71998644260521
N        14.27757889752503    1.71329672379822    7.59498543924173
N        13.35556210048485    2.21430229523780   10.93884921762878
O        13.26129518163559    1.07119853872406   10.34952860732749
O        13.77791418770440    2.26097717504853   12.05013552920331
O        12.99088239736757    3.19728884386673   10.28797073218058
Pd       12.49987151332294    1.50371302686431    8.49876285294686
H        11.64712461896001    3.06950262933377    6.76540941212663

