47
CSD_code = GABNEC | q = 0 | S = 0 | Stoichiometry = C22H17AuN3PS3 | MND = 4
Au        2.31873217052205    8.01598822976043   10.15274368929519
P         2.77760720631297   10.61096886563624   11.90922237139950
C         3.58869549625367    9.58542268415304   10.68326070856380
S         1.03449528516145    9.43197446497528    8.71653946928614
S         3.38288203856405    6.39877342148013   11.56089419771528
S         0.75872707042213    6.28087658877970    9.65377989891372
C         5.17402050165194   11.11178664902275   13.21870186677917
C         6.09425436240671   11.92122664065592   13.85991581851779
C         5.83875424774188   13.27352783898485   14.02567143571116
C         4.65299237414153   13.82044887276591   13.56142397223717
C         3.72303120957186   13.02187894779703   12.92083209250496
C         3.98748395416409   11.66598845379049   12.74340740378684
C         2.12464301124354   12.50064096285199   10.04379446366844
C         1.28042193394684   13.34209769405108    9.34654314149027
C        -0.06327856379814   13.40855299738709    9.68277290230448
C        -0.55835037981340   12.65380148237604   10.73339176811845
C         0.27844895950789   11.80729235128694   11.43965298559054
C         1.61739764819131   11.71241116180575   11.07677039512942
C         0.80060184576119    8.86348604884708   12.75171888025700
C         0.17614941465448    8.03806349835837   13.66751608844531
C         0.64002842048821    7.97550266983638   14.97258341226485
C         1.71393937958593    8.75546591254643   15.36876017266045
C         2.34843722556485    9.58264845816449   14.45923380475113
C         1.90302039544535    9.62411344530432   13.14231285038186
C         2.23163580901892   10.25331869211214    7.92484634141439
N         3.04944501772786   10.85909631547782    7.38961616070845
C         4.13633349986330    7.36122164197561   12.66241443915430
N         4.66034740628466    8.04109974324466   13.43221053201162
C         1.74307100292931    5.48677906505087    8.58487838554858
N         2.42392701506645    4.93541998194582    7.84156616633739
H         3.82355186244192   10.21793884875366    9.82366445124372
H         4.51738659794707    9.20854635302113   11.11126112645150
H         5.35803866887266   10.05102328030925   13.11516769630152
H         7.01261648904618   11.49268176185021   14.23096928011039
H         6.56287665940353   13.90224946416818   14.52128966877038
H         4.45032435803003   14.87199579587299   13.69780519536306
H         2.79642339978656   13.44638865486073   12.56050137499419
H         3.17354508851074   12.44804199744022    9.78558525634463
H         1.67025417253519   13.93597710239397    8.53463590703908
H        -0.72501057000715   14.05483755806938    9.12658447518852
H        -1.60180985343794   12.71829043510759   11.00264237225653
H        -0.10701999992264   11.22439631859870   12.26398019290738
H         0.42172675069104    8.92466535270461   11.73843686673359
H        -0.66661614055221    7.43910588428145   13.35738554978303
H         0.15964121495887    7.31807320663062   15.68105460494342
H         2.06963259206991    8.71121133341387   16.38660712875762
H         3.19674374452586   10.17820286941071   14.76175303792352

