52
CSD_code = GABPII | q = 0 | S = 0 | Stoichiometry = C23H23MoN2O2P | MND = 8
Mo        4.71669137396378    1.44733925257442    2.69135940236927
P         2.99316419103842    2.22907318510982    3.89460228273464
O         2.69321975354269    0.39741488943647    0.62679580740434
O         4.52384485147114    3.85582678504991    0.78720168896980
N         1.46487904246353    2.77308513096384    3.52021396717620
N         2.67206502318711    2.32866129713708    5.52632163611557
C         3.41982313830763    0.80517776705811    1.42473732173750
C         4.57028125671852    2.98113772269301    1.53569553839305
C         3.51801938779108    1.69714957029845    6.50434805058553
C         3.08957436049788    0.29218024331612    6.85602380746305
C         3.15204600864419   -0.15851842355386    8.16734707337119
C         2.78281280216427   -1.45501632519009    8.48118422060648
C         2.34154150295575   -2.31145668084964    7.48718872435948
C         2.27117700059255   -1.86649996868165    6.17752026873790
C         2.64384655822565   -0.57205109466270    5.86425462915948
C         1.28691070807217    2.57914575794710    5.87530865337189
C         0.68996789858422    3.26324902854846    4.64836761024016
C         1.13999262814603    3.30247141250126    2.21733936273282
C         1.32994976877440    4.79738211535330    2.11764877977322
C         2.42125091649248    5.40580977813984    2.72279805524526
C         2.60887807974517    6.77180420242357    2.62271072921051
C         1.70575717263992    7.54570840910384    1.91331691075397
C         0.61504082332141    6.94667654223470    1.30767452272812
C         0.42594277373987    5.57962189690426    1.41302261771084
C         5.85873122186001    0.00475999969406    4.13537852550203
C         6.56244854087789    1.23771969952943    4.12055542313474
C         7.03565959057376    1.45128040569608    2.81327754214964
C         6.61189946792896    0.36850254629913    2.00526086182432
C         5.89947763773681   -0.53300153631510    2.83826097540146
H         4.52765962434664    1.67156122918077    6.07424017295355
H         3.54867537782502    2.31462106954838    7.41038323556068
H         3.49588839785425    0.50788673825001    8.94604966628250
H         2.83778212079481   -1.79571005987700    9.50456292692867
H         2.05267812190169   -3.32254567524006    7.73217209048062
H         1.92829930122724   -2.52920706876475    5.39690097873648
H         2.59017672811333   -0.22921370634266    4.83513050736869
H         0.76655547083570    1.63770974633313    6.09576704396000
H         1.23356414350952    3.21812366782128    6.76241553073205
H         0.76999201625740    4.35530424754333    4.72770158137230
H        -0.36447566352383    3.00447495320503    4.51328192818779
H         1.80048085769374    2.80767470590904    1.49309096308729
H         0.10353921790861    3.04072765941686    1.97366079985185
H         3.13576743438897    4.79962003471008    3.27150317264344
H         3.46381324346360    7.23278894055292    3.09445324269385
H         1.85363496308943    8.61218644269733    1.83112628064928
H        -0.09138976673199    7.54479059631191    0.75166709621692
H        -0.42545252124253    5.11421997897961    0.93718432814969
H         5.51189164531041   -0.51358029143034    5.02273805614828
H         6.85028957872400    1.81199650810831    4.99518116739929
H         7.71833388864192    2.23621356877492    2.50715793093533
H         6.96806621061725    0.15300681148142    1.00554168728653
H         5.57073612893900   -1.52588370593158    2.55327462341988

