43
CSD_code = GABQOR | q = 0 | S = 0 | Stoichiometry = C14H16N10NiO2 | MND = 6
Ni        0.00076358017992    0.00110640542906   -0.00016122896578
N        -0.54945805266897    2.20133963575209   -0.86472351027267
C        -2.30668757584690    0.50155387088822    1.77755576960642
N         1.31216814110799    0.81266210256766    1.20712725899574
N        -1.28599734410731    0.19726303184619    1.28663825131081
N        -1.34686279575380    4.23547019283325   -1.06773494654482
H        -1.89694808202478    5.06125437222965   -0.89644435627963
O        -3.31663928689928    0.80306522226463    2.32109542389152
C         0.09094721797644    2.82116702041642   -1.89126506369835
H         0.84964341984466    2.31227751807079   -2.45052019810979
C        -0.39091317885043    4.08919369767862   -2.03416309666052
H        -0.14477122038758    4.87528572831378   -2.71772916468921
N         3.18526665713912    1.21263883899904    2.26407070360109
H         4.14433068551755    1.13070896982439    2.55967681051670
C        -1.40282534314164    3.06656055234058   -0.38867625622974
H        -2.07173313655524    2.89331399502674    0.43133490191518
C         1.12869236618067    1.88621155280575    2.02198851087924
H         0.18447089894391    2.38694782357680    2.08706004185795
C         2.55231821136504    0.42609440618219    1.37097996258083
H         3.02251694802653   -0.39384402471416    0.86656575029688
C         2.28791831603590    2.14995349051549    2.68792193698972
H         2.53966130260006    2.90265892238890    3.40591907666141
N         0.55087440287584   -2.19863808151907    0.86589364412313
C         2.30102412955219   -0.51383297499769   -1.78294463622081
N        -1.31014777792077   -0.81088186475828   -1.20719205435374
N         1.28775905039832   -0.19346339112561   -1.28703496306619
N         1.34590761891609   -4.23362356499210    1.06969690496308
H         1.89532983890369   -5.05995984612312    0.89894580602409
O         3.30517970458951   -0.82830233006608   -2.33002174548869
C        -0.09125122240045   -2.81783101264163    1.89177310176945
H        -0.85001614058572   -2.30821137385723    2.45027417143698
C         0.38911107488369   -4.08636534485547    2.03512948586174
H         0.14141760939746   -4.87219299435693    2.71843615438505
N        -3.18225941238868   -1.20961371754644   -2.26633699731464
H        -4.14053216931909   -1.12617629129479   -2.56407363431837
C         1.40383446655543   -3.06477164116617    0.39073249853813
H         2.07378379637004   -2.89238749871272   -0.42860472022472
C        -1.12811943316900   -1.88811900798748   -2.01750109424256
H        -0.18526813357179   -2.39190877843825   -2.07878358826435
C        -2.54884704835326   -0.42141020719766   -1.37506513545386
H        -3.01764463637056    0.40193540750944   -0.87491945402202
C        -2.28677438567049   -2.15115542998196   -2.68469901558814
H        -2.53922306137482   -2.90597338112778   -3.40022130619710

