89
CSD_code = GABRUW | q = 0 | S = 0 | Stoichiometry = C36H48CrN2O2 | MND = 4
Cr       -2.43862863653124    0.28899349961325    4.50880679774596
O        -1.30964496036703    1.03008527826162    3.73797676854135
N        -3.23403245566479   -0.78061251312880    3.28709253746699
C        -2.73741407106308   -0.57056311068250    1.99154932662245
C        -1.99821411323919   -1.54793525847750    1.32533619348049
C        -1.48873890197674   -1.31675096609279    0.05664024848106
C        -1.73929795768698   -0.09867497518005   -0.56107494288408
C        -2.48102469663956    0.88643763973144    0.07444791684855
C        -2.98367130999612    0.63879987182072    1.34418812936825
C        -4.55079844516155   -1.39530606848507    3.39287699945664
C        -4.70401258500754   -1.99814132230213    4.79325401103056
C        -6.09006298536574   -2.61765061251754    4.96047083005133
C        -7.14959928034960   -1.53419723507903    4.77232271858061
C        -7.02311019169997   -0.94559572770405    3.36876548936651
C        -7.22112059169868   -2.04768269081188    2.32868142949310
C        -6.15437254525745   -3.12278985596684    2.52641738353026
C        -4.76308500871144   -2.51063463181672    2.35642513592595
C        -5.63871343254477   -0.32645323557935    3.18890305752119
C        -6.28941999968247   -3.72218064359514    3.92457894933636
C        -0.65527958387594   -2.35671005779390   -0.63139288590395
C        -2.73959925356877    2.20944535870359   -0.58146129673440
H        -1.80377918810189   -2.49276214318085    1.81140938944016
H        -1.34093874797652    0.08570920420694   -1.54886156936922
H        -3.53899388227795    1.40730672645510    1.86950808165447
H        -4.56293837723257   -1.21203502837464    5.53767420355414
H        -3.93113950928362   -2.75944033404544    4.93714893688045
H        -6.17375109208981   -3.03981877705465    5.96853331908444
H        -7.00772798880188   -0.74815704804150    5.51632999027248
H        -8.14715410022328   -1.95770494643084    4.91112858763479
H        -7.78359583948833   -0.16941661445880    3.22823635425272
H        -8.21514705133703   -2.48793592880858    2.43468364341143
H        -7.14503609968463   -1.62903392878151    1.32266940109559
H        -6.28675672693536   -3.91078653878819    1.77583396661373
H        -4.00353679318440   -3.28473687154667    2.48857760424991
H        -4.66037262236094   -2.10557038647471    1.34727836664390
H        -5.47406250521663    0.47569771384914    3.91395123086652
H        -5.54946934004827    0.09140395010455    2.18320490957512
H        -5.54454104437924   -4.50872837046841    4.06760354814482
H        -7.27755783360596   -4.17235527232890    4.04271482141527
H        -0.81281176413440   -3.33797175188905   -0.19075937581643
H         0.40164619722548   -2.10648771830258   -0.53710769114048
H        -0.89363658902314   -2.40330561506136   -1.69191422979910
H        -2.29578997040347    3.00869616710676    0.00998233495698
H        -2.31663512000982    2.23950956794306   -1.58239858253246
H        -3.80975411612006    2.40047748653331   -0.64728972810905
O        -3.56746093101358    1.03021010447198    5.27974174412315
N        -1.64343718576948   -0.78097543218176    5.73042363036899
C        -2.14002510688867   -0.57089224819359    7.02598275054563
C        -2.87922186556859   -1.54819839536041    7.69229894310977
C        -3.38857720420040   -1.31692116072723    8.96103192676695
C        -3.13788623869154   -0.09884017109673    9.57868522493142
C        -2.39615889216165    0.88620061875742    8.94305452285331
C        -1.89365585214172    0.63847884971422    7.67328124031763
H        -1.33835569700757    1.40694390422620    7.14787527920045
C        -2.13740039718529    2.20923021513856    9.59883945752320
H        -2.58121897489548    3.00846557618382    9.00738145523100
H        -2.56022866161563    2.23940911751246   10.59982908083633
H        -1.06721939405079    2.40017511152115    9.66450293816342
H        -3.53614687718582    0.08560605434087   10.56649963919666
C        -4.22205119675807   -2.35678156168696    9.64920222046584
H        -4.06459200712923   -3.33809809192873    9.20866627930097
H        -5.27896969757691   -2.10651740853794    9.55494322272929
H        -3.98365110675138   -2.40327984835614   10.70971844031463
H        -3.07374498269248   -2.49304985174400    7.20630580716237
C        -0.32660430946487   -1.39557535980055    5.62475150364054
C        -0.17321983034373   -1.99850048806778    4.22443061403028
C         1.21295179813866   -2.61778139392157    4.05732714623396
C         2.27230081767717   -1.53415235469792    4.24550581605224
C         2.14562087389460   -0.94552009708731    5.64903172257049
C         2.34373688421063   -2.04750586780477    6.68920315978584
C         1.27714832441588   -3.12276741847616    6.49144066846045
C        -0.11427614853308   -2.51086016648210    6.66124975788573
C         0.76113700956347   -0.32654852851238    5.82874281219706
H         2.90597295402075   -0.16921647468272    5.78957581189526
H         0.59642758656341    0.47556585565410    5.10366291790861
H         0.67175817894320    0.09130532163548    6.83442788925126
H        -0.87368922737540   -3.28509688249316    6.52905998058223
H        -0.21713891561381   -2.10578229213395    7.67037171035880
C         1.41243377667846   -3.72219630933778    5.09331941325786
H         1.29678533397965   -3.03999776764796    3.04929449621875
H         0.66775968337736   -4.50893263653949    4.95027135504052
H         2.40068902706835   -4.17214435164191    4.97530282352559
H         1.40959015369119   -3.91069953540242    7.24208203705120
H         3.33784741225455   -2.48761476738686    6.58335622454719
H         2.26746423851392   -1.62878789778897    7.69517115828246
H         2.13033163399258   -0.74815682784694    3.50147056625668
H         3.26993319304199   -1.95749818160478    4.10675980772341
H        -0.31439506488409   -1.21247958671161    3.47993959859910
H        -0.94594200377476   -2.75995765841344    4.08054489521793

