93
CSD_code = GABTAG | q = 0 | S = 0 | Stoichiometry = C44H38ClIrN4O2P2S | MND = 6
Ir       12.64966457298495   -3.74475811005952    8.29697823432165
H        12.49458421634269   -3.74460074856373    6.77372641595643
Cl       10.30096340591022   -3.74460512101952    8.55857975685941
S        15.09499890505569   -3.74464874202681    8.63395171298710
P        12.53875155456447   -1.43242022378668    8.41111859983657
O         8.04553516271318   -3.74471448700929   17.08965805464323
O        10.01415092413577   -3.74477001544261   17.95541855588196
N        15.39841870897573   -3.74464195970953   11.28219615512893
H        15.00603541598131   -3.74473893410956   12.20908103930726
H        16.39038748201802   -3.74473296313285   11.13352506372956
N        13.23540980820778   -3.74466994601808   10.38076228293795
N        12.78031302587324   -3.74467714989237   11.64969696130875
N         9.25850991479770   -3.74468892907251   17.00163908266865
C        14.54626028041941   -3.74467202872685   10.24449917426264
C        11.51053919998687   -3.74467981848687   11.82955867460118
H        10.81460762611944   -3.74467302631409   10.99254905481714
C        10.95641053265406   -3.74469122843723   13.15600000423757
C         9.56467704721513   -3.74469962889335   13.31639279537828
H         8.93582714557086   -3.74469804344297   12.43866689909593
C         9.00466023687374   -3.74470487828064   14.57301701879048
H         7.93462320715179   -3.74470383161705   14.71577831859585
C         9.83538048819906   -3.74469389012194   15.69183906083390
C        11.22279991404505   -3.74470057329345   15.55232996517737
H        11.83629179804796   -3.74469469925139   16.44062829481410
C        11.77439175453353   -3.74469366369557   14.29376536399438
H        12.84403473739410   -3.74468394350281   14.15866582103108
C        12.41527732775841   -0.90715509279845   10.14318161415218
C        11.16914034357819   -0.90209815245118   10.76442791827324
H        10.28466836444372   -1.11209282414624   10.17834101540548
C        11.07219467531595   -0.64477569107333   12.11980628620708
H        10.10337828301178   -0.63522724370338   12.59745242113810
C        12.21566365885410   -0.41969205956360   12.86856967108813
H        12.13836329106016   -0.23210261157791   13.92929928228140
C        13.45978372923415   -0.45237233361589   12.25946123767977
H        14.35368752781901   -0.29069558368288   12.84500013883857
C        13.56272812852043   -0.69692836834078   10.90262593858449
H        14.53482233640083   -0.73417288587048   10.42663393521550
C        13.91060228486809   -0.43829956663143    7.73388243573184
C        14.64081793300938   -0.96394131953034    6.67424934571044
H        14.41946322970855   -1.96394324347826    6.32766464876127
C        15.64639239845790   -0.21954913682713    6.08490235291740
H        16.21445268173437   -0.63576384211796    5.26631591316614
C        15.92511696543827    1.05590564293179    6.54671653671727
H        16.71263208891100    1.63758141413135    6.09067157270644
C        15.19211418975915    1.58774538792146    7.59549422629200
H        15.40589630461765    2.58416308004407    7.95444503565805
C        14.18422495493085    0.84837725204391    8.18637201102597
H        13.61762918838886    1.27040985012487    9.00449517910932
C        11.15418390531418   -0.56130532802211    7.60383379342031
C        10.73675178533705    0.68972817824982    8.04800008125444
H        11.18684042371932    1.13588589396802    8.92389246360023
C         9.73051120676240    1.36048000166286    7.37829106324909
H         9.40508885574841    2.32825562939255    7.73162244234259
C         9.13968667274719    0.79463123507089    6.26015831144444
H         8.35093238010209    1.32089357122413    5.74304194102892
C         9.55976779227069   -0.44553320018193    5.80995316527127
H         9.09960295251143   -0.88978465191387    4.93999759309714
C        10.56642964298733   -1.12081069599323    6.47607271485424
H        10.89301039542626   -2.09393910581002    6.13934258372805
P        12.53867406635746   -6.05699468966700    8.41111976632242
C        12.41518765703997   -6.58219598601890   10.14319740973666
C        11.16904989577438   -6.58729192611426   10.76443912838247
H        10.28457295068087   -6.37733571996587   10.17834581107711
C        11.07211573893165   -6.84461910372891   12.11981826498118
H        10.10330463165541   -6.85419490892418   12.59747411122101
C        12.21559515925161   -7.06965741116877   12.86857896415380
H        12.13830343186590   -7.25722880274761   13.92931220370712
C        13.45971570036294   -7.03693044575081   12.25947446728101
H        14.35362185177676   -7.19857082663333   12.84502003360117
C        13.56264830678878   -6.79237536913028   10.90263825738004
H        14.53473350216270   -6.75511996825457   10.42662775482671
C        13.91054303456881   -7.05108509884109    7.73391106312391
C        14.64076382663095   -6.52543721599263    6.67428298544115
H        14.41939744951809   -5.52544191823761    6.32768732992231
C        15.64636856743530   -7.26981182105169    6.08496720501917
H        16.21444189154690   -6.85358649531638    5.26639516563234
C        15.92511546845832   -8.54525266307454    6.54680639674678
H        16.71265863081367   -9.12691281512087    6.09079052168331
C        15.19209887021186   -9.07710089309188    7.59556967014709
H        15.40588490850183  -10.07351288575489    7.95453104294431
C        14.18418125113315   -8.33775043588215    8.18641886338825
H        13.61756827258699   -8.75978973745503    9.00452621808927
C        11.15410619483263   -6.92806967325750    7.60382170950582
C        10.73668457408995   -8.17910851645117    8.04797717093596
H        11.18677119293168   -8.62526162796121    8.92387252706363
C         9.73047931346876   -8.84988043590507    7.37823819636455
H         9.40507272197514   -9.81766494835832    7.73155737312140
C         9.13967962710165   -8.28404276821304    6.26008692246794
H         8.35095227776719   -8.81032146887981    5.74294687172650
C         9.55974099693315   -7.04386484147487    5.80990007612907
H         9.09958327646531   -6.59961657971748    4.93993926167250
C        10.56636898334088   -6.36856535099649    6.47604958502642
H        10.89293281222702   -5.39542426629542    6.13934044006206

