94
CSD_code = GABVEN | q = 1 | S = 0 | Stoichiometry = C48H40CuN2OP2(1+) | MND = 4
Cu        6.77315194552928    3.98020789323516    3.34568098981973
P         4.62261744337740    3.74577911066849    2.63826597917117
P         6.91974648579196    4.13017484647811    5.62849555651204
O         4.82903175036229    2.52971659089845    5.05416980064594
N         7.57206559969473    5.32452352540570    2.00167505823023
N         8.27253063393951    2.82578252682228    2.59350256063085
C         7.84142788997134    2.74719433134737    6.36931902855197
C         9.18110150612004    2.64121889660707    5.99957361460448
C         9.94955372565225    1.59225967740361    6.46396436748452
C         9.38263452871314    0.63469488231314    7.29154304339883
C         8.05050169565065    0.73451403236639    7.65687359270546
C         7.27608611581150    1.78599701090417    7.19722864929053
C         7.84749386568361    5.54425114540002    6.30088211352607
C         8.34040845897368    5.55761455749412    7.60322345069783
C         9.03681996953229    6.66001318544056    8.06234131537051
C         9.25031995631819    7.74767012608225    7.22890137784826
C         8.77310269556463    7.73228363938956    5.92867951723953
C         8.07524699884288    6.63141331458896    5.46476243715234
C         5.36968430208814    4.16932498236098    6.58450254166256
C         4.39365695408488    3.28359571445482    6.10781460986792
C         3.97798660252848    1.73979121053425    4.30597808874672
C         3.79559688673254    2.16076269857238    2.98466654166342
C         3.51417058638061    4.85918006016408    3.56161186763025
C         2.14047690668592    4.64380540759351    3.63604638160461
C         1.35241076509267    5.48975272818677    4.39443396325235
C         1.92527366587757    6.54596828654178    5.08543892147310
C         3.29143890091373    6.76205486872933    5.01643895257667
C         4.08302142796749    5.92025554748431    4.25729890623195
C         4.23225193550631    4.05051828938513    0.88934630119224
C         3.23557669887533    4.90761452810505    0.43907384983182
C         3.06717238653366    5.10857223898079   -0.92017223899123
C         3.89239786617360    4.46875403692556   -1.83030747208976
C         4.90161816803293    3.62885869478688   -1.38404153820827
C         5.07695625449007    3.42838932809437   -0.02880537055143
C         3.06457187403941    1.37471096978159    2.10742240961701
C         2.49881966550836    0.19501170238625    2.56449510934092
C         2.66822085586570   -0.20453302765161    3.88006666350173
C         3.41785845331134    0.56123482400484    4.76175297170814
C         3.12640957054362    3.25578941715424    6.65881805189304
C         2.83370462998918    4.12013176776007    7.70252370909763
C         3.78656868330458    5.00389620208168    8.17818202906495
C         5.05180729001496    5.03974946304084    7.61448141662557
C         8.66023225256871    4.83486251032446    1.39781254865986
C         9.17083342728982    3.56581172110883    1.93039607495403
C         8.59280399531199    1.61355945518785    3.03330098130220
C         9.87471059713887    1.10197431370465    2.85774510112701
C        10.83236316483287    1.87819823552894    2.22665007845765
C        10.47673939868797    3.12581174308697    1.74073028908924
C         7.50006831462411    0.79351381480928    3.64393778380443
C         6.74366083394930    0.03688941231819    2.54907615096109
C         9.21545259838120    5.46566147769905    0.28574488470135
C         8.62159499295796    6.61740968782745   -0.19840667045377
C         7.48240649312339    7.10368957479788    0.42922946536107
C         6.99460877200430    6.41685638451681    1.52598069414859
H         9.61236604508474    3.39721862666294    5.35429814410719
H        10.98982130802552    1.51894985152684    6.18330061131683
H         9.98132552462611   -0.18652479033879    7.65515351581091
H         7.61292387773957   -0.00827327678178    8.30712398058785
H         6.23904452117842    1.86425757437345    7.49093112369229
H         8.18070518529450    4.70343941057216    8.24709010225611
H         9.41677622260090    6.67221817481430    9.07289515832393
H         9.79540543868573    8.60517527272972    7.59292943219531
H         8.94842381787962    8.57578921312216    5.27746662204210
H         7.71033756622683    6.59801734632739    4.44516186633020
H         1.69465810113714    3.81346402123313    3.10478719086834
H         0.28720143174543    5.32251420602979    4.45011673501207
H         1.30547421729577    7.19884284725895    5.68049299488042
H         3.74010187444382    7.58049337422431    5.55894609921263
H         5.15684175455237    6.06683059554185    4.21274180493715
H         2.59393595781453    5.41405727851244    1.14602361802419
H         2.28759831308859    5.76847286662372   -1.27028102245370
H         3.75385612613227    4.62887010260424   -2.88862321550552
H         5.55080746241186    3.13719266808439   -2.09331856738409
H         5.87152604660216    2.78855683382142    0.33774439954952
H         2.93396864203091    1.68783997111544    1.08143963930839
H         1.92002390667203   -0.41604712150004    1.88916767291088
H         2.22128510817517   -1.12414643254709    4.22464310823782
H         3.57239406637845    0.24295960479189    5.78192204080016
H         2.37464424555599    2.58512954927035    6.27048055490178
H         1.84707286463544    4.10401121353673    8.13872309108252
H         3.54208855683067    5.67545861110021    8.98618185364297
H         5.78684055032065    5.74621196976874    7.97025598599816
H        10.11170747972946    0.11372526546029    3.21788627392361
H        11.84041409783229    1.51312266070242    2.10330583810800
H        11.20274160216739    3.74915125118377    1.24520375599279
H         7.92042600093790    0.08748203424055    4.36083939073406
H         6.80528182058597    1.45390904078925    4.16419581706390
H         5.94797636559125   -0.55927737028857    2.98781841759113
H         7.41341386400944   -0.62317719421953    2.00260084304594
H         6.29687881524936    0.73908844042091    1.84803237051973
H        10.07992285717854    5.04900848330308   -0.20492282299727
H         9.03313754788431    7.12322487870239   -1.05819195729474
H         6.98678650174789    7.99320695364143    0.07661622263577
H         6.10689687695912    6.75231843039013    2.04707480826744

