101
CSD_code = GABVAJ | q = 1 | S = 0 | Stoichiometry = C51H44CuN2OP2(1+) | MND = 4
Cu        3.61791351653330   10.42937734991659    3.93338311859130
P         1.79642659419482   10.18765640253972    5.28179297724988
C         0.40181460388634   11.31338337714620    4.93888514202527
C        -0.31061269448327   12.02098394981622    5.89677339346632
C        -1.32741013371289   12.87030658292788    5.50122189308667
C        -1.64900928300610   13.01321784541830    4.16193978660135
C        -0.95572291318409   12.31974027666047    3.17877867834867
C         0.07807949108404   11.48240836843831    3.58972079354527
O         0.86339105508552   10.80393737686668    2.69420593279005
C         0.97384658857667   11.37750842645374    1.45450320279278
C         2.16137292408460   11.10074537406581    0.77487905397600
P         3.25496892852199    9.97944823416177    1.69831741172046
C         4.83231340533176   10.07506119509962    0.81080941340730
C         5.40918662473905   11.33027394221690    0.62148683515831
C         6.68783166521512   11.44024774789128    0.11009688083528
C         7.41239924997929   10.29873571074063   -0.19500973621833
C         6.85483485171544    9.04800669173740    0.01555239289858
C         5.57446379911457    8.93318245349667    0.52497308386971
C         2.52990006751833    8.39876430751182    1.15261722123497
C         2.49889476066538    8.03408529072612   -0.19081319284511
C         1.90720273089155    6.84130816305423   -0.56138427510061
C         1.33616811394693    6.01632459707057    0.39691014239221
C         1.35375342398666    6.38472746888722    1.73187947880914
C         1.95078381163755    7.57465854686620    2.10887726966872
C         2.37018596735274   11.65258215264963   -0.48025909917853
C         1.40731488797844   12.48837233310618   -1.01693634651530
C         0.23664681331943   12.76017998678010   -0.32735295985789
C        -0.00924633060674   12.20280166286694    0.92109060990272
C        -1.30223794336748   12.35941635749004    1.70022963788172
C        -2.17630004231854   11.12518634321178    1.39466930531023
C        -2.06895917592264   13.62274341792244    1.31280329222591
C         0.92670717627657    8.59046846771525    5.43804358649871
C        -0.23750901211589    8.30825303469211    4.73092974447526
C        -0.81592998025403    7.05474016246789    4.82163011048055
C        -0.23671085562835    6.07333117572666    5.60887161853621
C         0.92683102615307    6.34732460077786    6.31049316798753
C         1.51027450237998    7.59696541689401    6.22308687805604
C         2.20184131262073   10.55889573136747    7.01573124877395
C         1.37536374637674   10.21363812355858    8.08238059838293
C         1.74772815825664   10.54075625981639    9.37312754504676
C         2.94092167905202   11.20667351446106    9.60874389125647
C         3.77142045135137   11.54070695094055    8.55157923571937
C         3.40441866808534   11.21453355242285    7.25846010946566
N         4.79681828667399   12.14335799781375    3.82163905619238
C         6.10332213156769   11.89231530245540    3.67997849670169
C         6.48477469982992   10.47430413574489    3.65170236350896
N         5.53223604533481    9.60798986782130    4.02096392652316
C         5.77673650210294    8.30423148948665    4.02352846098415
C         7.01721803270022    7.79910320221716    3.64146875247596
C         8.00549431668292    8.67805254706174    3.23893697292428
C         7.74088506899051   10.03751999642531    3.24372952353373
C         4.67586297453917    7.39391954613093    4.45103878105999
C         7.02661870448468   12.92868312627718    3.56564221793049
C         6.56852189794763   14.23467877220681    3.57218052502811
C         5.21007101716049   14.47320745053021    3.69429070142050
C         4.34404861855798   13.39248236489553    3.82597460975099
C         2.87040456061243   13.58252470702243    3.95786540180211
H        -0.06235358810787   11.91893588736300    6.94198725815529
H        -1.88136603209821   13.42317620226687    6.24375812535113
H        -2.45422069479023   13.67475918183956    3.88986879909077
H         4.84356785364350   12.21917991301049    0.87199570041235
H         7.12229805743517   12.41662171549298   -0.04733419421740
H         8.41109597307230   10.38418816646351   -0.59531366653569
H         7.42093260231350    8.15836871572908   -0.21696594472028
H         5.14262943826614    7.95633638586773    0.69578832013694
H         2.93926750768504    8.68176949224300   -0.93627617462288
H         1.88656683869122    6.55350507772245   -1.60182652884143
H         0.87408978018956    5.08741695156333    0.09894349776457
H         0.90283532258770    5.75009740524135    2.48047188931722
H         1.96447724870299    7.88100137107060    3.14568616478431
H         3.27843050415482   11.44088884722778   -1.02467291770256
H         1.56400917900796   12.92754640886141   -1.99006292379361
H        -0.49314485669954   13.40883211098889   -0.78239919717332
H        -2.43493960743398   11.10474893522968    0.33858946981660
H        -3.09212056696101   11.16259711501811    1.98028886620202
H        -1.64733622489141   10.20442517124837    1.63449424391710
H        -2.31763895922578   13.60368777356429    0.25579274953761
H        -1.48227620610950   14.51429386337686    1.52292083342926
H        -3.00691755620062   13.67848774455339    1.85745870047136
H        -0.69501742777851    9.06712240964167    4.11391094613011
H        -1.72421136132561    6.84506417673595    4.27661878060934
H        -0.69264847545821    5.09758804210210    5.67942653635544
H         1.37861814654464    5.58608279184931    6.92854269028447
H         2.41281933449679    7.81484247608692    6.77919270931089
H         0.45107808896989    9.68254938899498    7.90031749899712
H         1.10589202734192   10.27494257081148   10.19961287914141
H         3.22558901000197   11.45843564951956   10.61887503274003
H         4.70581439861247   12.04922691219323    8.73651152658234
H         4.05131583562315   11.45194073693777    6.42114834405949
H         7.19257630066123    6.73534841074011    3.66064505668363
H         8.97195473417154    8.31309931708158    2.92774792060039
H         8.49414533717610   10.73467582477899    2.91905174635622
H         5.03214436263902    6.68383321348132    5.19419850494542
H         4.30417916178665    6.82850318170530    3.59709085420026
H         3.85704958683041    7.97914206895605    4.86590732828313
H         8.08103660873487   12.72565178633513    3.48777090196759
H         7.26258558855988   15.05650937321368    3.48420271848003
H         4.82277886638154   15.47926595991963    3.69266668405766
H         2.62230361012432   14.62268879367688    4.14777911796112
H         2.48471788417125   12.96450887804243    4.76899712222761
H         2.37752728001061   13.26818417055364    3.03723316668188

