116
CSD_code = GABVAI | q = 1 | S = 0 | Stoichiometry = C53H53ClO3P5Ru(1+) | MND = 6
Ru       18.00825804342897   10.95106081974771   13.41036801639087
P        15.96993876359162   11.48940262427242   14.22884955597278
P        18.79160235911680   13.14612483990288   13.79113045944047
P        19.18638543172065   10.56269918845808   15.44437909853675
P        17.25763274568016   11.37317189706570   11.23116304863270
P        17.32058369491670    8.74583921137997   12.95688061962632
Cl       19.68288718775257   10.14717138259096   11.91962437954607
O        15.36690698146630   11.48146243871120   15.73111537937990
H        15.57315716817279   10.69312073148164   16.24138659227618
O        14.97639034197250   10.48067104671304   13.43855478326214
O        15.46457426815083   12.94897156705931   13.85477244860087
H        14.67029983434610   13.21146434233125   14.33456413906347
C        16.01894949348466    7.92338155288454   13.94275040354015
C        15.19608281872209    6.93088420673556   13.42212926285337
H        15.30147508808765    6.61035141793269   12.39660555684450
C        14.24062917724598    6.33290214288660   14.22565869926736
H        13.60273952375647    5.56521107076643   13.81393863709256
C        14.10211689206668    6.70631457553966   15.55264080339841
H        13.35404037029866    6.23559473441249   16.17171027646800
C        14.93573428756832    7.67599407689563   16.08487425158982
H        14.85138282718539    7.95687239611607   17.12502521111594
C        15.88598805141951    8.27489077211485   15.27896690635268
H        16.56862183562916    9.01209147197691   15.67957542540096
C        18.50827799446713    7.36113373893060   12.92972658428482
C        19.23782740094180    7.03455243676267   11.79054018220634
H        19.10883116289336    7.59475580064059   10.87656519895341
C        20.15355199151896    5.99857295875440   11.82787754564657
H        20.71729293442693    5.75393086252118   10.94017434313917
C        20.35155456608315    5.28197611751262   12.99620279083815
H        21.06980594311090    4.47674090812447   13.02173226959292
C        19.62195470739185    5.59756670468010   14.13067040485929
H        19.76659690035245    5.03620135817742   15.04179002639240
C        18.70400963871958    6.63035601886599   14.09883520169284
H        18.12870078333529    6.87103191997037   14.98205435882633
C        18.26510983497338   12.29089463645153   10.02145258804272
C        17.73577204603892   12.48073603224461    8.74611183086570
H        16.74164987516761   12.12387853260204    8.51398282232048
C        18.47485609909213   13.13442583500337    7.77922409642971
H        18.05982204176836   13.27492985851736    6.79249527830385
C        19.74498730190046   13.60674098201157    8.07214662514606
H        20.32135401522904   14.11237705787731    7.31250824860464
C        20.27127901856777   13.42796270036877    9.33939112006688
H        21.25968492586108   13.79393884316759    9.57628128220409
C        19.53283874110274   12.77390112957445   10.31087337374074
H        19.95473920594187   12.62378280398576   11.29642706002526
C        15.65643552119177   12.20225466238607   10.93226691486521
C        14.46576281489663   11.53895669089035   10.66018838477920
H        14.43118968350235   10.46103117768679   10.60880580506641
C        13.30048857622711   12.25710727069083   10.44750325196865
H        12.38267247022245   11.73136636022240   10.22546857509018
C        13.30748153347388   13.64007503497590   10.51168735102474
H        12.39571950367660   14.19354733755644   10.34546644237927
C        14.49121645772522   14.30830948406310   10.78149767837440
H        14.51067418266237   15.38693966634744   10.82676966156831
C        15.65498338220869   13.59391782759547   10.98552166756108
H        16.58170197142320   14.11267329068830   11.18082067433557
C        18.46181692557839    9.70133849453014   16.89221915021511
C        17.53439039355850   10.34370855572795   17.71126153488464
H        17.26417685429790   11.37392204487521   17.52142578942429
C        16.96902170092071    9.67902199882488   18.78515826917875
H        16.25833964609358   10.19041160963357   19.41790016664404
C        17.32031725662944    8.36589022200583   19.05355752640983
H        16.87975904672689    7.84898493413508   19.89209221221559
C        18.24670182014792    7.72382947076864   18.24860638415511
H        18.53303051492452    6.70511210844709   18.46154447402910
C        18.81558260288022    8.38480478577677   17.17483867940014
H        19.54856486379336    7.88518803731438   16.55831221025155
C        20.83829842183086    9.78582171049533   15.50377898439924
C        21.24259388421424    8.88912285211527   14.52275414721192
H        20.59540658562287    8.67717705959926   13.68701138118200
C        22.47925381042389    8.27283816589401   14.60594731028803
H        22.78073684782085    7.58207840482327   13.83317629494629
C        23.31869238225138    8.54278263307858   15.67176517344887
H        24.28536024058571    8.06696536943369   15.73639647800858
C        22.91166880701805    9.42114715290611   16.66470193821128
H        23.55823046890730    9.62371938346879   17.50542066659393
C        21.67712293471972   10.03607533462304   16.58935690322654
H        21.36453767769733   10.69911895677944   17.38263146706152
C        20.57304617005203   13.53578212809773   13.66806100077316
C        21.02877284708638   14.83918357117536   13.85452381018729
H        20.32494108073204   15.64811195515450   13.99021510027879
C        22.38611268448964   15.10065694720248   13.86302724472215
H        22.73293406772910   16.11352200770360   14.00274308903021
C        23.29966973875226   14.07062601606270   13.69913543444702
H        24.35786370204085   14.28277472662389   13.70647070300488
C        22.85197908637766   12.77180203609320   13.53025025701907
H        23.55493267683923   11.96143661615002   13.41014674191910
C        21.49437950024175   12.50504777912392   13.51547363643207
H        21.15114540655488   11.48851348851826   13.37583182080705
C        18.04516718372875   14.71972975894315   13.24994006828124
C        17.05446311348032   15.35790060553330   13.98977063161660
H        16.70237195840409   14.93145916293360   14.91569711664180
C        16.51364941475491   16.55251446219724   13.54842784841919
H        15.74739919694518   17.03942515842289   14.13337769254735
C        16.95522868232812   17.12970830434367   12.36991948009855
H        16.53161076957790   18.06261101355566   12.03058771278583
C        17.95197797388525   16.50945045958836   11.63461528309945
H        18.31178268158064   16.95572001963064   10.71970719601338
C        18.49239913259217   15.31323130928441   12.06949849656017
H        19.27365152751737   14.84092733475670   11.49269808068628
C        16.54981523300725    8.67884346495701   11.27476828941327
H        16.70962880093464    7.68411308306952   10.84571855259711
H        15.48039389703685    8.81876882926582   11.46062338189501
C        17.05927374053891    9.76514981842568   10.33962698715527
H        16.37713369709347    9.91197667221086    9.49623776412256
H        18.04407866160506    9.51204463195216    9.93511431393600
C        19.54778266080515   12.21623729939101   16.22609657310050
H        19.42892724497938   12.15319036558521   17.31104951693442
H        20.59363684934728   12.45082138198204   16.00145975711754
C        18.65681886306263   13.29387738266070   15.62987135650019
H        18.97680986374995   14.29200816901706   15.94640229845445
H        17.61106149479337   13.13889014706005   15.91674955796138
C        13.56761058225250   10.46461552303093   13.64365387340047
H        13.22860958013350    9.44973887622127   13.43478115235813
H        13.08098429950878   11.16491846225269   12.96168948582586
H        13.31255183658079   10.71889719863734   14.67435795859150

