64
CSD_code = GABWEO | q = 0 | S = 0 | Stoichiometry = C34H27ClPRh | MND = 6
Rh        5.15436588736109    5.25239169830892    8.68278842419168
Cl        7.39830036991007    5.34917410398766    8.84750741173088
P         5.31795558733861    7.44393999235514    9.21131662453257
C         2.49620045055395    1.00960818517964   10.54148586286952
H         2.34755220220259   -0.00388762645512   10.88362346663582
C         1.97896991983215    4.26704431467068    5.93929034623541
H         1.20838828605296    5.01835192312743    6.04039768756620
C         1.49367922664663    1.95084153148883   10.70430649289708
H         0.56191238706761    1.67242638144091   11.17435351958051
C         5.17341490646091    3.07929532924187    8.88798410630100
H         6.07671606696885    2.76431914663945    9.41124811229236
C         6.50678613057389    8.27468588647834    8.11182925802665
C         2.92483259747761    8.51934288579618   10.12168397170811
H         3.13762733324348    7.94720045411365   11.01575317867197
C         3.20819767422931    5.32559650681073    7.84223843524836
H         2.88612012364834    6.32416679863478    7.53942814566200
C         3.11548707753292    5.00505049391389    9.20827311497576
H         2.72507333849357    5.77485409213792    9.87550333465301
C         5.85001029100033    9.10616058788585   11.41471043970797
H         5.53469251614653    9.92887218411459   10.78633699927779
C         2.40264018234995    9.99502060059382    7.84023543930840
H         2.19991761829068   10.57127210454430    6.94908381652716
C         1.68770289497275    3.25286148595597   10.27691613255450
H         0.91153739551875    3.99251007898214   10.41460722294563
C         5.83935324535642    7.80666845611960   10.91301500776827
C         2.87962213940560    3.61794855825027    9.66594251856144
C         3.89236232873481    2.66837321705154    9.50638009535421
C         3.84837235868673    8.52519393195184    9.07869673825834
C         5.26208604437803    3.39395140665621    7.54247522164559
H         6.23218000717736    3.31679477699264    7.05060933243010
C         1.75635177899581    9.25077983975702   10.02596886822318
H         1.04808057813246    9.24328160974137   10.84168313979129
C         3.57246225586849    9.26121461144073    7.93196478611493
H         4.28005397483443    9.26701183272516    7.11453383784057
C         3.69663364257645    1.36937836434412    9.95349426300701
H         4.48688548074073    0.64114961403282    9.83912082353126
C         8.30506702639709    9.76681805808710    7.57737364675163
H         9.03798520136822   10.49565668345509    7.89188036558841
C         8.24031262183597    9.37945357718553    6.25031970847359
H         8.91983404978736    9.80890056865431    5.52890397754200
C         3.97785836926899    2.36502511663151    5.66294857152840
H         4.76539654034865    1.63392962550909    5.54826241224843
C         6.61260248839666    8.27521255773220   13.53321607626595
H         6.91928312653731    8.46108217621764   14.55206104169923
C         7.44187249771382    9.21804983421410    8.51135008915004
H         7.51425175573474    9.50898341923993    9.54894322292524
C         6.18840522327323    6.74439239506824   11.73841688990517
H         6.15511198156121    5.73484890513747   11.34040743590020
C         4.08102086330104    3.33355289270177    6.65128408480948
C         6.57790168046865    6.97972836663682   13.04494572273014
H         6.85216423780465    6.15306623549295   13.68343780476863
C         3.07221013905550    4.28971210443567    6.79464798692385
C         2.87247923142002    2.33632841449938    4.83014504409031
H         2.79471818332995    1.57706557433295    4.06607005418463
C         1.87567916913545    3.28781670012382    4.96668076535571
H         1.01977828420389    3.27242068912006    4.30804593618061
C         7.31883741285674    8.42344242567159    5.85063864189111
H         7.28208210120995    8.10372534913152    4.81939673337221
C         6.46016927737177    7.86911777156749    6.77884252721829
H         5.75703072283149    7.09002713439932    6.48955747779398
C         6.24251241974865    9.33571688931766   12.72018098439957
H         6.25674614919205   10.34447473587788   13.10730318655088
C         1.49297425331907    9.99080912044085    8.88416890478896
H         0.57949069377153   10.56189732010361    8.80888453035093

