43
CSD_code = GABYUD | q = 0 | S = 0 | Stoichiometry = C18H17CrNO6 | MND = 6
Cr        7.84265771037074    3.93137840004871    6.97160570441715
C         6.20109807150405    4.64144638401856    7.50123505824501
O         5.21707817730671    5.11062925615071    7.86865207743478
C         7.40288401405466    4.14134370500593    5.16486699195032
O         7.24536505429621    4.49543937370634    4.07966966823742
C         8.40680566371617    4.05011966337657    8.74411841962322
O         8.81008137139800    4.25205894276060    9.80385162503272
C         9.46250177669921    3.11880634081034    6.54149892701849
O        10.47410136112788    2.60476931632811    6.34245801340112
C         8.53815054127566    5.63442625217114    6.73090575204002
O         8.96906914514363    6.69023581194276    6.56857883001549
C         7.09952807581036    1.97693652970127    7.26785070419539
N         7.41838059480226    1.43421819221947    8.36100190156943
C         7.55241112370178    1.17213005305230    9.59243826503097
O         8.64376453012471    0.54189272413120   10.06514880628450
C         9.67130997715129    0.27618389392242    9.13245111618759
C         6.53994416666895    1.54263026596692   10.58164307608303
C         6.69994100789246    1.18225753434139   11.91931298150058
C         5.74790061021900    1.54935700166168   12.85080534772834
C         4.63523570761258    2.27894635389198   12.46328814048096
C         4.47422696889767    2.64321328385416   11.13533331214622
C         5.41721344677393    2.27601553951425   10.19604318537104
C         6.32084435005430    1.08561642387226    6.30377489110299
C         5.07540035456805    1.84083100635359    5.82929708604299
C         5.88389773457092   -0.23089292879887    6.96002343493375
C         7.23503854725537    0.77717469505976    5.11199739719683
H         9.30974671572724   -0.36625989446946    8.32377462150580
H        10.06030354100290    1.20338529699012    8.70294682621218
H        10.45633407974967   -0.23310958029678    9.68649470787804
H         7.57231583662093    0.62089718998453   12.21351613278785
H         5.87543633034136    1.26838500533236   13.88545918971630
H         3.89508953984789    2.56578811726515   13.19493127255706
H         3.61189664444644    3.21700354454626   10.83142137588569
H         5.29481574104707    2.56170467543409    9.16100961552742
H         5.34769494551571    2.77647489862745    5.34704744566502
H         4.52548837446594    1.23034994172886    5.11638140202435
H         4.41781342556980    2.06102485168336    6.66819538892673
H         6.74599469188427   -0.81606238308314    7.27373693027589
H         5.26099285082876   -0.04155679812512    7.83242082679206
H         5.31071508888164   -0.82558367915571    6.25251358586777
H         6.71305798376388    0.13729754687615    4.40394941773596
H         7.52853523639221    1.69248423737594    4.60360343544839
H         8.13523889104474    0.26241301415345    5.44294711191222

