56
CSD_code = GABYIS | q = 1 | S = 0 | Stoichiometry = C25H21N8SZn(1+) | MND = 5
Zn        3.61320498459820    5.80300938399389    8.22135302092279
S         4.75464390457124    4.96151808262528   12.57274165725627
N         2.30182302964885    7.34360792284796    8.22728133382044
N         1.24347297979344    9.08424357466152    7.36833975713089
H         0.94454859282704    9.77536827367791    6.69895904381972
N         2.76809478836040    4.13359210585896    7.45328002204246
N         1.49913058756510    2.98554559901808    6.05346318994555
H         0.89665032773000    2.77922426113505    5.27275612195145
N         5.33576773952153    6.27708567185928    7.26726139629923
N         6.66458281475015    6.49755692386094    5.51394228655678
H         6.97352317944106    6.50868631070721    4.55504077261673
N         3.03114662932136    6.29527045713852    5.83665344486888
N         4.03803432998536    5.44650487856197    9.96154656857706
C         1.57938237198840    7.93943643451245    9.23953081420155
C         1.44794102760961    7.60654217900231   10.58314347729140
H         1.96948328981948    6.75706678388506   10.99175196849109
C         0.63705888817507    8.41364292012246   11.35292273933177
H         0.51306724933732    8.19044338875378   12.40078441484197
C        -0.03076002993669    9.51827844652913   10.81581829073551
H        -0.65316302353957   10.11845094862475   11.46069743338868
C         0.08635508720199    9.86095373457655    9.48378983078997
H        -0.42800518925384   10.71333437407789    9.06952296046914
C         0.90161326327396    9.05397635137273    8.70563112860628
C         2.08067393212534    8.04898463642303    7.14467170612802
C         2.71107216987962    7.71177035697639    5.83426016441976
H         2.05564977631480    8.00027271556618    4.99729662561434
H         3.64326619485926    8.27904472634695    5.74457782210174
C         1.89837017623865    5.43085533587605    5.55676378943340
H         1.78961654765203    5.20358060404876    4.48452766736770
H         0.98467020840043    5.93462821937540    5.88895649558168
C         2.05750142596758    4.17781011398942    6.35257853097804
C         1.86845088895228    2.09901223959573    7.04526369363898
C         1.58917672153850    0.75774584662888    7.25565953409231
H         0.96729201030287    0.19565782301200    6.57739092764740
C         2.14563282245944    0.18040100311850    8.37926534590531
H         1.95390352477268   -0.86079730689568    8.58552131012153
C         2.95073487250086    0.90981555075191    9.25922946655861
H         3.35929665773396    0.41157027039163   10.12411300174640
C         3.23365186862242    2.24367486373817    9.05354114071448
H         3.84894273904777    2.81264900993997    9.73051269747991
C         2.67837496082430    2.84178755973498    7.92778619104946
C         6.60489456788189    6.55365294688588    7.73156807714068
C         7.09094116129746    6.69947290191796    9.02617298512492
H         6.43655432648931    6.58950295127586    9.87470766531805
C         8.43460326783752    6.97703557042984    9.16468426359664
H         8.84960353812932    7.09226822729758   10.15345741075371
C         9.27972055056758    7.11201866099505    8.05923489905096
H        10.32389811568051    7.32859963572532    8.22125847795160
C         8.81313891122999    6.97437265260957    6.76744588488917
H         9.46460745675082    7.07776513748046    5.91441591495744
C         7.46358243106241    6.69329535831161    6.62255888068011
C         5.41455077965096    6.24866170285059    5.95897442029584
C         4.23268902911691    5.95704806140637    5.09492761718977
H         4.30685455308234    6.49284220252444    4.13536825066338
H         4.21989706529214    4.88315030782036    4.88155570821156
C         4.34788992494860    5.23891110644750   11.08664175964160

