159
CSD_code = GACBET | q = 1 | S = 0 | Stoichiometry = C74H76ClN2OP2RuS2(1+) | MND = 6
Ru        3.99212635483705    6.33022345216214   23.66095092772303
Cl        2.33271481392380    5.70139261968747   25.24730622830096
S         4.02347463533607    3.93436487024002   22.85282481327639
C         3.83269122737756    2.99967694649228   24.33356039007833
C         4.79127549138923    2.18354577683044   24.77256244217092
C         4.78556654402718    1.47511162754240   26.03686292340876
C         3.78533833031842    1.63088465782348   26.99960727218271
C         3.84478330432133    0.94191681726319   28.19311982598565
C         4.89867211937447    0.07912834410942   28.47543692356787
C         4.95228603569581   -0.67821796513361   29.76301765564580
C         5.89706720111524   -0.07572281057903   27.51853657426241
C         5.84295480807069    0.60773550970646   26.32249488683737
C         2.25178181157413    4.27077194884434   22.39752399629374
S         2.11920874348867    6.05377372732474   22.04444767589097
C         1.76109414026144    3.53156278204738   21.22736540644197
N         0.59752881220417    2.86692817102433   21.21380284457678
C        -0.22213950165178    2.58946815933941   22.35175315767713
C        -1.34862276762546    3.38014967088260   22.57511341972004
C        -2.14489767282914    3.07218604345076   23.67227615461530
C        -1.82729445645600    2.01670551060485   24.50227404964271
C        -0.69872531327037    1.25198279448085   24.26512570216078
C         0.13520747714190    1.52603083484979   23.19082117907333
C         1.36571043947721    0.69004729253955   22.91133350455426
C         1.04515203719461   -0.36955140910900   21.85019996485883
C         1.92672943536632    0.00785866463310   24.15887423317822
C        -1.70181139803912    4.54476489165840   21.68343799792607
C        -3.08918202881933    4.35071464804911   21.06669281672892
C        -1.63005803055807    5.85188675183725   22.47511834012552
C         0.34043505469507    2.46338979512522   19.93421612447371
C         1.37910168801665    2.88046615659159   19.16758737691747
N         2.25366359792396    3.54143770914981   19.98210110514842
C         3.53566161739325    4.03316045586420   19.57805200053156
C         4.63543410096505    3.18206019940957   19.73851395106410
C         4.46881848149197    1.75938947739011   20.22453133355000
C         5.64066707931834    1.27511610872135   21.07747209255436
C         4.28958666511970    0.83590787395525   19.01386771270881
C         5.87806529586078    3.65915187717513   19.34812936049935
C         6.01557583479867    4.92855582077577   18.81832899133750
C         4.90867367708540    5.73256420200146   18.63377484347429
C         3.64049258741168    5.30063550976631   19.00357335081751
C         2.42513374965912    6.14691196438870   18.70997378556834
C         2.04882598177083    5.97990375181663   17.23357918065114
C         2.64875485184184    7.62491073059162   19.03015031682575
P         5.91626653647506    6.07999645891836   25.01379901786441
C         6.95783789765331    4.67693260152762   24.45861020857349
C         7.14675266484826    4.46825787700348   23.09246544035359
C         7.99263114129019    3.46965815729338   22.64423524480418
C         8.64195791768350    2.64779025634508   23.55099586023165
C         8.44186595715619    2.83406774804809   24.90832567216367
C         7.61126504599726    3.84395631973732   25.36237520689377
C         7.08312275932306    7.47539536274570   24.85076791305347
C         6.90184370429299    8.59448126101753   25.66340901634101
C         7.69778404054229    9.71266595772443   25.50385133789558
C         8.68557842624346    9.73003343326976   24.53246964907898
C         8.87700009140602    8.61974667662906   23.72763537092113
C         8.08014627859934    7.49805697662822   23.88014632823888
C         5.89633693240475    5.77294001694691   26.81286900666462
C         4.88681962407111    4.96284466802119   27.32434000134880
C         4.86174432389315    4.63884561865254   28.66821729475504
C         5.84787047851766    5.11814319196492   29.51354111944121
C         6.86607190174829    5.91013137846876   29.00689176158422
C         6.90007965560688    6.23275696727975   27.66251731624702
P         3.35407572825536    8.49583410885297   24.25737532482045
C         4.01417924735637    9.85408577249228   23.23433953977206
C         3.26091655980366   10.98006115515714   22.90860670979082
C         3.83038254825206   12.00565538584049   22.17549845250855
C         5.15318192271008   11.92730206697326   21.77076425205097
C         5.91223226063574   10.81948299462162   22.10894700072608
C         5.34523848650409    9.79036942353912   22.83760853420096
C         1.55805040585652    8.72378942227356   24.09771965972518
C         0.71945486333014    8.75433925502740   25.20571188534318
C        -0.64329701982429    8.92352745488017   25.03081371588828
C        -1.17134927386999    9.06791641963288   23.75937755905654
C        -0.33770991884035    9.02549091322728   22.65211316537432
C         1.02122680740495    8.84359597568692   22.81603860117327
C         3.68453899658765    9.10417657943527   25.94669035730491
C         3.66667031514397    8.21667870365496   27.02000485885645
C         3.91931906250294    8.66402699703479   28.30435314756177
C         4.18837083347009   10.00338627222395   28.53087313203118
C         4.19587251001988   10.89331876880447   27.46854730181127
C         3.94747278961175   10.45149784989645   26.18153322287073
C         4.98276396686815    6.83326567296698   22.19900906602018
O         5.46697252617747    7.09307502670406   21.19035991319830
H         2.92478686644140    3.22067772253919   24.87352246333031
H         5.67065358243341    2.03073299937235   24.16082175200079
H         2.95950531077277    2.30343277070600   26.82370273234815
H         3.06069172783062    1.07631109904167   28.92453270816701
H         5.97530874213152   -0.75737771451813   30.12379133512982
H         4.34262218587848   -0.19935515431751   30.52495417832436
H         4.57381301329089   -1.68993592889283   29.61326248705964
H         6.72491586884427   -0.74022397724146   27.71893546449726
H         6.62782939778968    0.47631975828706   25.59113217936142
H         1.64746990971626    4.02705663783477   23.27819803782285
H        -3.02122374669156    3.66577986794773   23.87579052948628
H        -2.45978797731894    1.78694346035539   25.34572863631691
H        -0.46739993299713    0.43486447192903   24.92730294956853
H         2.15283798326618    1.34852769232190   22.52157423064953
H         1.91979802164034   -0.99043717800276   21.67208656172498
H         0.23528129829568   -1.00769727888551   22.19546507522788
H         0.74801918342283    0.08126705026540   20.90599141688547
H         2.91872268653713   -0.38332991003497   23.94496359625646
H         2.01469792198779    0.70645298827650   24.98607635411853
H         1.29957337293701   -0.82511699356830   24.46458501284651
H        -0.55190804355263    1.93055321883560   19.67785192172216
H         1.56214155467628    2.76508328693454   18.11970592218616
H         3.56780554843099    1.69259047109176   20.84386853147163
H         5.37055071718436    0.34668114649994   21.57555568713128
H         5.89394258747050    2.01411272154059   21.83332532789787
H         6.51818151803238    1.08058363099468   20.46748657751522
H         4.18150539913615   -0.19445108842059   19.34371517420102
H         3.40830951455893    1.10527635510997   18.43639076245853
H         5.15737286107191    0.90059651058007   18.36212171453299
H         6.74476054670430    3.02668031765212   19.44607617129106
H         6.99187938143030    5.28642744008386   18.52923234264781
H         5.02983384734662    6.70862902287183   18.19506503639801
H         1.59061075928342    5.80263894662417   19.32874357683977
H         1.16708261960233    6.57347322028428   17.00632430850364
H         1.83499488972569    4.94064292117741   16.99272350834958
H         2.86364604578711    6.31540314412738   16.59658198621412
H         1.70189700584504    8.15577823323903   18.97022626802837
H         3.04196117519932    7.73821259051792   20.03741945047187
H         3.33951013781738    8.08689089288007   18.33085930430648
H         6.63135850741622    5.09085936661568   22.37248872034656
H         8.15007458058836    3.33991375018894   21.58420026750228
H         9.29952282020477    1.86685021038174   23.20016219788543
H         8.94086001293445    2.19660780653690   25.62279780017476
H         7.47243334557411    3.97571787239395   26.42444477968335
H         6.13954234729112    8.58132318863247   26.42758390386113
H         7.54439665399458   10.57089574572494   26.14061232858051
H         9.30658405194738   10.60378440529071   24.40691960293316
H         9.65073996654771    8.62404666452386   22.97436729973557
H         8.24173569469191    6.64021465425424   23.24426143463223
H         4.10990561109582    4.60307058431133   26.66681974489864
H         4.07165173246811    4.01254011805733   29.05388160229556
H         5.82788159908936    4.87243205826362   30.56466584614001
H         7.64388837823023    6.27505737463087   29.66106727536486
H         7.71143436051597    6.83208393241434   27.27640003427801
H         2.23173287237562   11.05819760681913   23.22912852527567
H         3.23801637084455   12.87260676960029   21.92334668099047
H         5.59077127591760   12.73042734009324   21.19751082791632
H         6.94674438615084   10.75380136017761   21.80723630244542
H         5.93543166859159    8.92697043731807   23.10956704889000
H         1.12969119039172    8.64174496162019   26.19947378244623
H        -1.29279067670457    8.94614233611430   25.89321809582426
H        -2.23384004593064    9.20985597284860   23.62957156041709
H        -0.74687234437877    9.13448508876646   21.65862076804042
H         1.67801855233987    8.79879314647000   21.95599765945682
H         3.45316988188432    7.17161573290646   26.85353571163546
H         3.90963980709105    7.96166092567728   29.12482407169467
H         4.38993939678694   10.35419392582584   29.53168047725016
H         4.39892068549362   11.93961416693661   27.64204112573388
H         3.96636278830825   11.15336831292749   25.36134238588016
H        -0.97696112262288    4.61766318036264   20.86583713713214
H        -1.88778337060688    6.68615787857372   21.82902285537582
H        -2.31683939516491    5.84231090304984   23.31654520830444
H        -0.62389513015290    6.01676592826353   22.85318843251662
H        -3.29575370708482    5.15295215313369   20.36297557358375
H        -3.86105587720447    4.36229028588561   21.83069798376124
H        -3.14741220319516    3.40252937991857   20.53573267428703

