58
CSD_code = GACCAQ | q = -1 | S = 0 | Stoichiometry = C25H25ClN2O4Rh(1-) | MND = 4
C        11.95180517909381    9.13570513121967   11.22944424324995
C        12.35651460814354   11.31136549541193    9.60382810556905
C        14.64233370770822    8.37768514619336   10.75388721149142
C        16.70034500427504    7.67622401250704   11.91219669432376
C        16.48023541565948    6.37420074110632   11.44291129381958
C        15.37464498464820    6.02478904774063   10.65650422706809
C        17.45848223535264    5.29658331539887   11.82416121717932
H        18.17568834252014    5.11637682270451   11.02043718214736
H        16.92853066011346    4.36421700552216   12.01387207440245
H        18.00475959339039    5.60585964373927   12.71276797426509
C        15.97425039046747   10.00249836793476   11.85954451677061
C        15.22248775625847   10.58099279485597   12.88252943974718
C        15.44737177015435   11.91556228905502   13.20018252716467
H        14.85765966917709   12.37137729490707   13.98476142545379
C        16.41078636426619   12.66276952658930   12.54525592056346
C        17.18826322951304   12.04341091736164   11.57670883203459
H        17.96211726609067   12.61032596694079   11.07736557955743
C        16.99261121875359   10.71904816967155   11.22338383896449
C        14.23356853189638    9.78534980498335   13.68891697972845
H        14.23984550833677   10.12847469034573   14.72233506528981
H        14.48544180945062    8.72717529190853   13.67169540965346
H        13.22261534071122    9.90985842228575   13.29486583620456
C        16.61854673646509   14.11365711714979   12.86961698253935
H        16.15105641239637   14.37214710435378   13.81736168469380
H        16.17702074054789   14.73488279721507   12.08955480972822
H        17.68022825925505   14.34877561698369   12.92412784487150
C        17.85059293885645   10.06482330514884   10.18801507573206
H        18.39933474080701    9.23858203886785   10.63800706203565
H        18.55781806815641   10.77704035609770    9.76961792141886
H        17.23211511515404    9.67159552321320    9.38250974035787
C        13.26289731826713    6.76485605393676    9.69698810984126
C        12.23423307609684    6.16433363333006   10.42635434338596
C        11.05093615077698    5.85860480411374    9.77460693503025
H        10.24409606421998    5.40221102793752   10.33196318597451
C        10.88030110415693    6.12418842352441    8.42297060491900
C        11.93623165970085    6.66873984776472    7.71095977917300
H        11.82829012620456    6.84467892807114    6.64914706013249
C        13.14256845337300    6.98320295545187    8.32387845296162
C        12.43048674074815    5.82652112213918   11.87254216532940
H        12.82441788282905    6.67877547828775   12.42520629217840
H        13.15402605261723    5.01503111105839   11.95198319180337
H        11.49397283935583    5.51235407037353   12.32753150219402
C         9.57220269574294    5.81534467505820    7.75415414165170
H         8.81522158737653    6.53636717355757    8.06460053260293
H         9.22243205924711    4.82222582748739    8.03207163210264
H         9.66750038711439    5.86418358872016    6.67192179479832
C        14.30441126991416    7.48945311957485    7.52724809341574
H        15.20028162334518    6.92332261380524    7.77879657588873
H        14.49733262726744    8.54075309217929    7.75097217702110
H        14.10999475421270    7.39437094465542    6.46141791023638
N        15.73629929207507    8.64550688983122   11.47400183175232
N        14.47382516179175    7.10561055854779   10.37766370564062
O        11.00697097641596    8.79031771846340   11.79598351000227
O        11.94002874232366   12.28137496012439    9.15334603502496
O        17.60471500867032    8.06200788631455   12.65518062123478
O        15.09179722582297    4.91171799752782   10.21045126175963
Cl       14.82719253352055   10.77806682130922    8.82426050420317
Rh       13.31076498922874    9.84232491937581   10.22023133368008

