47
CSD_code = GACFIZ | q = -1 | S = 0 | Stoichiometry = C15H24CoN2O5(1-) | MND = 4
Co        1.47359773331702    2.22774021729690    1.69356964211083
N         0.41176947566144    3.69753805890261    2.40703835461167
O         2.76835242605838    1.28690870141768    1.14216701490173
O         0.75257286543794    1.37658530477968    2.95362669187678
N         1.68462565852689    3.10309563754830   -0.00265394305849
C        -0.00605954824994    3.46246582632413    3.64910461356183
O        -0.71148037093736    4.12369647413934    4.40484128221670
C         2.29225974159307    2.31312507510470   -0.89027059811208
O         2.54127393311231    2.52125350085029   -2.07695009225431
C         0.54968749847551    2.08563226100480    4.11693328055470
C        -0.47931956926665    1.38332062385365    5.01154549001785
C         1.84760759344080    2.35359709244007    4.89446563557634
C         2.72174368438332    0.99247015697324   -0.20628815795792
C         1.67154563561306   -0.07687701130568   -0.54811221185840
C         4.10476679362056    0.57006672561998   -0.71944532368081
C        -0.20443815721366    4.77531996112797    1.62856374814051
C        -1.37527449554755    4.16259230052357    0.83380817969058
C        -0.73939519936530    5.95406424846914    2.45515264706521
C         1.54264189628472    4.50199403138701   -0.38275249226277
C         2.94784716465440    5.10732417532798   -0.57124470476596
C         0.74180596699439    4.69256814770420   -1.69219279080081
C         0.81196523681796    5.36639968349472    0.64209655231762
O         0.98391486912894    6.56661473784673    0.60387446521077
H        -1.02796422959341    3.28840726857461    0.28699668374437
H        -2.14004399573032    3.84525109777928    1.54062891061452
H        -1.80359370804725    4.89062288592368    0.14696610067728
H         0.04593319278672    6.34641249324442    3.09535742745798
H        -1.06053191355197    6.74146046384120    1.77548037768277
H        -1.57021388961016    5.64289862250751    3.07728064226639
H         3.53158951342503    4.94351320159507    0.33319252023187
H         3.44045867815340    4.61817804907760   -1.40647435557882
H         2.87247564487122    6.17482366040095   -0.76057834961189
H        -0.22336357446548    4.19875806516330   -1.63083690495252
H         0.59370231764549    5.75474080919463   -1.87640664751700
H         1.30570727958980    4.25125204921200   -2.50883744814307
H        -1.32926698319561    1.07746195251464    4.40583995115375
H        -0.04054575191192    0.50241325039185    5.47611375944299
H        -0.82002447702891    2.07722831124520    5.77583738745504
H         2.57123382663664    2.81396838834303    4.22070972645914
H         1.64796312429547    3.02074309179858    5.73069404904119
H         2.25806864599589    1.41509770602767    5.26478884600630
H         0.71550823951474    0.21981715400677   -0.11498724642396
H         1.57465202309229   -0.16833368938704   -1.62821459782777
H         1.96672857397675   -1.03548254636837   -0.12417224755864
H         4.84867162098259    1.27907747188860   -0.36358585346944
H         4.35824378885696   -0.42262327627233   -0.35263701634890
H         4.10050122077175    0.57541758846613   -1.80653299790295

