73
CSD_code = GACHOJ | q = 0 | S = 0 | Stoichiometry = C36H26N8NiO2 | MND = 6
Ni        6.58456651247214    0.50008651464143    3.91885570636908
O         9.52771760985756   -1.84871164381339    5.16749016835580
O         6.09247586384755    4.29917715369613    2.88561111378412
N         7.89776513226467    1.27253430197989    5.49537603257575
N         7.57155484659266   -1.04168247505458    4.24514649392413
N         5.61335449629260   -0.76268656848096    2.51076280825453
N         4.47125883366940   -0.63623541005166    1.97673820963414
N         8.07769807454886    1.38923708218757    2.57184082697040
N         5.74986084120808    2.13294218027142    3.60554397790960
N         4.84196036204384    0.16355357954034    5.09820003184576
N         4.34205048741281   -0.93253319732640    5.49145795540639
C         8.01247710917144    2.45013927291764    6.08926446885932
H         7.22095318280911    3.16474657959353    5.90186923016911
C         9.07991494165897    2.77124208792982    6.91422277367170
H         9.12914487758662    3.74191184753764    7.38208211426504
C        10.07144536041173    1.82378806206970    7.12210899153339
H        10.91678037193030    2.04188490580297    7.75821150601474
C         9.95443579475745    0.59468953917054    6.49875106448664
H        10.68780799459240   -0.18837685166670    6.61339389851066
C         8.84882618789638    0.35609303363540    5.69052010423288
C         8.68338626855516   -0.97401049443301    5.00916116429037
C         7.14994420024068   -2.19014429610084    3.63315579331479
C         7.66756972172180   -3.47703598764384    3.83869574586425
H         8.51299676302723   -3.60494536726023    4.49285616088597
C         7.09825154249267   -4.56191597363599    3.21134798091401
H         7.51209760152391   -5.54483801491565    3.38270038464724
C         6.00401690664985   -4.41658382583604    2.35904635615575
H         5.57680774377979   -5.28268523055120    1.87646025045443
C         5.48003240600249   -3.16774862999895    2.12921552142045
H         4.64388175498967   -3.01627386085592    1.46368576536642
C         6.04516718161539   -2.04914686937110    2.75427421119594
C         4.06492807470798    0.57847370399338    1.48835022006959
C         2.70688453675652    0.90189025825748    1.56981909229063
H         2.03910888222592    0.22021181587827    2.07318667745960
C         2.25538529107822    2.09896742657645    1.05710942121524
H         1.21052358379236    2.35814195545143    1.14229011961823
C         3.13652273232645    2.97121926792642    0.43401588634332
H         2.77714752730463    3.90718543037868    0.03382340577476
C         4.47679388877188    2.63772105587496    0.31485317822897
H         5.15877345756879    3.31098758644270   -0.18360916956004
C         4.94633375395509    1.45149912017432    0.83881944193546
H         5.98298892586504    1.16255698946633    0.73219999280455
C         9.23344470187772    0.96536054265949    2.08491530425636
H         9.45476454337446   -0.08663656990057    2.21390442522783
C        10.12635308029806    1.80603972349572    1.43753724011746
H        11.05473670187235    1.41539778307384    1.05148022676829
C         9.79958668731881    3.14691576193757    1.29866002442223
H        10.47295329520639    3.82905693683807    0.80059156089152
C         8.59403606040704    3.59148984944435    1.81047324637751
H         8.27575765019532    4.62005212364817    1.74026023610097
C         7.75708528188648    2.67873298679054    2.44217457700656
C         6.43344101852932    3.12679925746794    2.99749797502793
C         4.47213226801063    2.27801331552800    4.07266270225138
C         3.62355928065438    3.36954284763335    3.83840485798332
H         3.99667191492388    4.21647868963532    3.28842385121045
C         2.32884634720822    3.35480173092865    4.30547176666739
H         1.69161744425221    4.20576152181522    4.11422001587686
C         1.82706773861102    2.26817425112960    5.02118029170997
H         0.80873241698206    2.28137466169029    5.37944456412384
C         2.63630148157544    1.18789084332362    5.27613552254540
H         2.28654521365658    0.33672110852646    5.84025805331830
C         3.95819531908182    1.18248583309740    4.81354184540866
C         5.14724064887701   -1.91130274314287    6.01422315251089
C         6.24437386918123   -1.61379586303136    6.83197549698925
H         6.46981294506171   -0.57802447974182    7.04629992944875
C         6.99080785951407   -2.63632505397283    7.37918611298035
H         7.83819277319936   -2.40474470335579    8.00780795866599
C         6.66205814825960   -3.95740472904206    7.11769908654953
H         7.25781783572165   -4.75357063059196    7.53785027859013
C         5.56245994020462   -4.25704713601767    6.32612271669665
H         5.30453636777810   -5.28715595288149    6.12985019134485
C         4.79664293857238   -3.24581195600364    5.78700606300276
H         3.94923660171273   -3.46059600537298    5.15473564844536

