60
CSD_code = GACHOH | q = 0 | S = 0 | Stoichiometry = C13H34B10NiSi2 | MND = 10
Ni        0.68413177475338    1.52952804505342    2.88791496438959
Si        3.11702868497661    3.80574959980772    5.94881463591142
Si        0.77350638291849    5.50337567809622    4.55724364520375
B         2.67087423240109    1.56502213124540    3.22810666439696
B         3.69208032751959    2.93624542893880    2.79998787571427
B         2.63436227550556    4.06732134539993    1.99318842421964
B         1.05155630226018    3.27382128847051    1.94975928653670
B         2.19076719665314    0.69385459986393    1.69191059813225
B         3.76759127084295    1.44419798777558    1.86088724361132
B         3.71831107539606    3.02618988970015    1.02963246432219
B         2.03842697203611    3.29579074869591    0.50876112699919
B         1.12587584892372    1.82568764698227    0.85550707551487
B         2.80027108850242    1.67023888737577    0.36561149132642
C         2.07578595892090    3.13792702957060    3.27914416262121
C         1.70228986437133    3.78436307796309    4.61124345123664
C        -0.74939578863223    0.03093800750040    2.67971476826911
C        -1.48457055882293    1.23731963970871    2.83618452334459
C        -1.24421350016680    1.72167116068633    4.12653556576179
C        -0.38576450473812    0.81109831433634    4.79063494299435
C        -0.09365319953324   -0.23832692433056    3.91203567586186
C         3.90045670341447    2.11126340069300    6.37919772754656
C         2.32732552485336    4.32612054017153    7.61465638778463
C         4.55560002192619    5.01241301020983    5.57508024794534
C        -0.60448112935821    5.36447635440590    5.88510661411649
C         1.92139813368417    6.97160551410457    4.98241060379665
C        -0.17446197929241    6.17497168300340    3.03076331987955
H         2.77231256080245    0.96230028423080    4.23451152618417
H         4.54464497369728    3.27357012234122    3.52737718013214
H         2.71466793595244    5.22951552682554    2.15443138601089
H         0.02682448968082    3.83157769857610    2.08160680305907
H         2.05953114033169   -0.47715630754808    1.66620123406001
H         4.71751295007091    0.74894937346387    1.89767319005017
H         4.64293535015582    3.46955366299512    0.45145294244277
H         1.73366303134767    3.92902133091305   -0.43642390538947
H         0.19628474866060    1.50524633540856    0.20574593499178
H         3.07270647980645    1.17193054151092   -0.66521605448505
H         0.95745651406228    3.13166618952119    5.08354689938265
H        -0.85117700076557   -0.66250766794913    1.86051822802757
H        -2.18260363852547    1.64570856854460    2.12473706632380
H        -1.70427799876418    2.58682344844159    4.57384747184211
H        -0.09157340717057    0.86930114824319    5.82619045374217
H         0.44148473489406   -1.14054341239902    4.15659619902498
H         4.54407113265234    1.73439316385230    5.59269124966487
H         4.50785288180064    2.21503269789397    7.27474794451808
H         3.15212593787599    1.35361801667907    6.58948165097327
H         3.08370230478561    4.32599131026211    8.39344478907016
H         1.89570565423873    5.31920087002705    7.58496109777385
H         1.54960306683102    3.63694592431792    7.92837839841684
H         5.50460391856014    4.48574805895996    5.55122187312780
H         4.44131950466993    5.51494584421313    4.62216155280313
H         4.63283718614910    5.77535135429820    6.34313960769551
H        -0.92929780595326    6.35093928166209    6.20068685692520
H        -1.48011164043623    4.85370705337715    5.49532099737307
H        -0.28511561044815    4.82985927291523    6.77154815655200
H         1.33175702584477    7.87913349490606    5.07203688477944
H         2.45278352821078    6.83823466865720    5.91551301529967
H         2.65785768483699    7.14496129489635    4.20513719651642
H        -1.07287891861194    5.60891381097566    2.80906731407164
H        -0.48892182699819    7.19384515952560    3.24453346642922
H         0.43111413244192    6.20485779403523    2.13259790518140

