73
CSD_code = GACJUP | q = 0 | S = 0 | Stoichiometry = C30H31BN7PRuS2 | MND = 6
Ru        1.75022723036035    3.59032068606654    0.42974304765164
S         0.31785066465586    2.74460017520473   -1.39995424159015
S         1.19999873672671    5.47007433400303   -1.04152571016201
P        -0.11890797706462    3.93242369003371    1.71808316099627
N         2.28907199799376    1.84543045954129    1.38560624108880
N         3.55730190351175    1.69836705056663    1.77896795496539
N         3.00629066948580    4.62754741677670    1.65334532145993
N         4.16985339974943    4.09474112598076    2.02271065838525
N         3.42295180329546    3.26124704962928   -0.68350589775233
N         4.56572825082285    2.91669330356425   -0.08868726997395
N        -0.67823888660589    4.77913227735216   -2.79960526638672
C         3.72024254510431    0.48971602656024    2.34042096829598
C         2.50972622170361   -0.16606071236409    2.30844057355938
C         1.63825231129284    0.73214813039828    1.69124154990723
C         4.84604852460205    4.96847417507750    2.78574158895501
C         4.08434205611740    6.10934759758641    2.90975505486291
C         2.93136745429834    5.84391905263789    2.17100414778095
C         5.52574721336602    2.75343295822705   -1.01216583947976
C         4.97744191475962    3.00350108719256   -2.25057614333103
C         3.64434315182354    3.32052907051842   -1.98721627425509
C         0.17556196343594    4.37987767479978   -1.85091294323710
C        -1.60201774270597    3.87426106250099   -3.43420526808439
C        -0.83014139963702    6.16409055341763   -3.16514483887496
C        -1.36021149057249    5.07777355118778    1.01157396634129
C        -1.01326975643959    6.42401136938482    0.89549538054348
C        -1.85528290439374    7.31664771900024    0.26200348332844
C        -3.04886568419605    6.87372181464926   -0.28601171870566
C        -3.39232953181661    5.53621296040065   -0.19325828183601
C        -2.55406141415301    4.64053809180865    0.44913357893541
C        -1.21905010889152    2.55392915561168    2.22619486270907
C        -1.60249311720360    1.61714587218523    1.26716158245460
C        -2.45284094469681    0.57760110416665    1.59677659686571
C        -2.92781672515346    0.45463464343173    2.89219221162266
C        -2.54872097630856    1.37773140341165    3.85139851595830
C        -1.70226934178041    2.42271759343583    3.52347917565066
C         0.23697943678327    4.64682188354313    3.36005568243910
C        -0.43349983594152    5.71675078767540    3.93948047324650
C        -0.05000348473657    6.17896727295105    5.18737807425763
C         0.99379067016209    5.57601655346248    5.86803867310001
C         1.65069294010556    4.49224497821086    5.30615039435624
C         1.27367612421338    4.03222326908098    4.06006859162809
B         4.62067397272729    2.75111704880884    1.43616301727314
H         4.67278531570183    0.17974088503198    2.71938187798175
H         2.28188028840520   -1.14678161345409    2.67160478810384
H         0.59552207159579    0.61197795359461    1.46898638206587
H         5.81127568771667    4.72751281450377    3.18244590923466
H         4.31986496931324    7.00281762819875    3.44999906229279
H         2.07909408440206    6.47477021641071    2.00105601974465
H         6.52130051553952    2.47378253106098   -0.73257189825178
H         5.46056680187230    2.96500918239373   -3.20511274047641
H         2.86782581696641    3.57999432636096   -2.68369020606312
H         5.69383565851935    2.43667951202825    1.81623822168251
H        -2.62628416174045    4.11998757544014   -3.14055140512007
H        -1.51472533159274    3.95967125167039   -4.51927374987642
H        -1.37692686011264    2.85405574763707   -3.13346825921096
H        -1.83234455783266    6.51186798365048   -2.90155910972886
H        -0.09386189437579    6.76290270740159   -2.63492661043642
H        -0.68490766465288    6.27906847727004   -4.24177166941422
H        -0.06971452667186    6.76565264983999    1.29859459465654
H        -1.57527415293553    8.35703164893894    0.18280469774635
H        -3.70590314817046    7.56999909488138   -0.78759283122204
H        -4.31941227476810    5.18420829188566   -0.62399681254711
H        -2.83423987370844    3.59908130611230    0.51176464847962
H        -1.22308974009903    1.70480659309274    0.25711982203669
H        -2.74155976253699   -0.13944186986245    0.84169579717244
H        -3.58925012298684   -0.35864033687663    3.15268183668262
H        -2.91492516030731    1.28661070450078    4.86390703190426
H        -1.41870346112969    3.13527327445857    4.28391053036666
H        -1.25823077070006    6.18653259549194    3.42250662553590
H        -0.57225824616294    7.01467201584224    5.63081781495840
H         1.29200401550022    5.94614205296876    6.83791647099945
H         2.45868741337362    4.01191291128400    5.83858608318706
H         1.77682923681546    3.18308057045332    3.61206224259293

