45
CSD_code = GACLOM | q = 0 | S = 0 | Stoichiometry = C16H22ClN3O2Pd | MND = 4
Pd        0.23089644879644    0.52277663568328   14.11916988317165
Cl        0.06989012287602   -1.73166030966531   14.17364778508795
N        -1.23123178547388    0.81878073392479   15.48248128413674
C        -1.11337804460891    0.31505183783006   16.85238072502556
C        -1.94723005997266    1.35750934806985   17.64549516822151
O        -2.41850134094463    2.27923648050951   16.66239275094691
C        -1.91592624235118    1.90027333198275   15.48658295236260
C         0.37405551577890    0.33586077480941   17.22695378937231
C        -1.69777262824428   -1.09047034707477   16.97250362984736
C        -2.04923301464847    2.81555139576291   14.32010061147674
C        -0.65907499264527    3.37897647251021   14.15008950634335
C        -0.17430421668589    4.67099439854742   14.09842751254342
C         1.22150157013857    4.56810897534473   13.95887105662351
C         1.51721096165142    3.21919886787859   13.96291077475627
N         0.37243607262980    2.50797748079765   14.07319292913672
C         2.81281314561256    2.45733625302054   13.82164253542077
C         2.54748109099219    1.51744758593893   12.69802911954288
N         1.71628048448057    0.54541537471140   12.74939044165809
C         1.52529416494478   -0.00018479610469   11.40400567903986
C         2.49711052421959    0.87502257695581   10.56698421269268
O         3.09611551265622    1.76596339015030   11.50807956904551
C         0.05507530642089    0.21385003990515   11.02217493293336
C         1.90391876117037   -1.47850300217320   11.35243443123750
H        -1.35302546239698    1.91039771090656   18.37824233660445
H        -2.81117693260785    0.91076847658503   18.14300828356447
H        -2.77422759614648    3.59950897182257   14.52882582760618
H        -2.34622187463685    2.24746541889277   13.42974639027418
H        -0.75127268790797    5.57443578016682   14.13987585870721
H         1.92110280532757    5.37765095789995   13.88125903753829
H         3.03044090867840    1.89423750505943   14.73775910736232
H         3.64049674872537    3.12059639463455   13.57905488846256
H         1.98608390045370    1.47134315702904    9.80611912834102
H         3.28809303976843    0.28732905185465   10.09531072669591
H         0.92630966829122   -0.33274153916801   16.54935640213687
H         0.77118651097461    1.35108589277962   17.13482578640735
H         0.51214468709878   -0.01075828838774   18.24856880002548
H        -1.16814986256453   -1.76568657400516   16.30354996216416
H        -1.59985960014092   -1.44651723966363   17.99483025945468
H        -2.74962637839602   -1.08828361731180   16.69387678455328
H        -0.58511958052284   -0.33458653655572   11.72974364547428
H        -0.19302256260646    1.27856067007241   11.06195910874280
H        -0.13374393260945   -0.16005109044663   10.01846832684426
H         1.28580031850819   -2.03943264484505   12.05041454467932
H         1.75343342689223   -1.86494293286962   10.34769825330546
H         2.94622709902540   -1.61249302377064   11.63466526042916

