81
CSD_code = GACLAX | q = 0 | S = 0 | Stoichiometry = C25H47CoO6P2 | MND = 7
Co        0.01381299462196   -2.03452571410031   -0.47999930909982
P        -1.39704915661162   -0.41957427531674   -0.39373606221216
P         1.35987434873844   -0.69563702115035    0.56602561897960
O        -1.24710444843551    0.90276834535105   -1.32152549601688
O        -2.94479967650240   -0.76755417957242   -0.68343524551862
O        -1.67732747601243    0.25372591911115    1.06749639326820
O         1.05899291738194    0.87683870245193    0.29229364854155
O         3.00249575014040   -0.64092242570914    0.76389355891266
O         1.04940424617552   -0.72241048407284    2.14429463393116
C         0.61252097615810   -2.64695271146363   -2.84448488912354
C         1.44073629132029   -3.07751725683471   -1.86270834144260
C         1.10494034209169   -3.71865559799591   -0.61024868462003
C        -0.14634479646204   -4.02712464069180   -0.05915281561237
C        -1.32985017591619   -3.55428697085662   -0.65762873352817
C         2.92625928138527   -2.84026976030237   -2.02248405814744
C        -0.20179763477541   -4.71104668149848    1.28502381331983
C        -0.35269956051419    2.00889223552536   -1.26915987525691
C        -3.83679736678153   -0.29816928094301    0.32694238767484
C        -2.92901753987002   -0.16745480025880    1.59158640198002
C         1.09906770854914    1.52181001718177   -0.97413322155258
C         3.38297930357416   -0.94397308456883    2.09874424579511
C         2.18942342829015   -0.42258133781062    2.95396015535871
C        -0.81966947344353    2.97647387291192   -0.17758505164724
C        -0.48464543429694    2.67509829470953   -2.64179125324997
C        -4.96645517397049   -1.31327570246402    0.47456826218177
C        -4.40944832176952    1.04613939633889   -0.12065300933188
C        -2.71370405071746   -1.50561449243599    2.29485792779449
C        -3.40387387655274    0.87713245620431    2.59796362136401
C         2.09584030983536    2.67904160611402   -0.82177786148341
C         1.59794634644774    0.58453940864352   -2.06604105844010
C         3.53893031559457   -2.46056910569038    2.21645491049305
C         4.71394467159322   -0.25868157118724    2.39213186471524
C         2.01619674355098   -1.13471335066632    4.29228181414153
C         2.25637698594534    1.08736971547431    3.17813454332880
H        -0.41002527783225   -2.93863225011308   -2.97721659932901
H         1.04413183405233   -2.15024793726258   -3.70262788834594
H         1.97205684916858   -4.06317664522550   -0.05127772550360
H        -1.51181383457207   -3.70941557418659   -1.70930149279351
H        -2.24334978372345   -3.69523065944334   -0.08452620073379
H         3.32817015828649   -2.29555795056631   -1.16987742867144
H         3.13988862970294   -2.27793749134990   -2.92817178931104
H         3.44153332606199   -3.79982262821266   -2.08427518626339
H         0.76939247276426   -4.71848731980436    1.77712460030789
H        -0.51891210608616   -5.74679092332956    1.14560358871187
H        -0.92071070615001   -4.22736793321988    1.94382146606274
H        -0.28465852681306    3.91918460733846   -0.24677160852103
H        -0.65892234871590    2.52584028876073    0.79710398719605
H        -1.88095799800850    3.17354261871620   -0.30804964194478
H         0.17898613758363    3.52931557753629   -2.73046497642382
H        -1.51026788496442    3.01329185190594   -2.76514092067533
H        -0.27084189617884    1.95989239534221   -3.42899564931508
H        -5.58254435218207   -1.06808149900647    1.33574812331839
H        -5.58369912102682   -1.29250155668728   -0.41969415589393
H        -4.56828925050808   -2.31599410287146    0.58552517682758
H        -3.61582009697610    1.78462426245345   -0.17447335096304
H        -4.82745971773740    0.92602779835029   -1.11732127734843
H        -5.19012829934558    1.38479027848260    0.55504619716884
H        -3.60603844433195   -1.83146240023792    2.82223621766828
H        -1.89496234508383   -1.38697396479953    3.00097734323218
H        -2.41190616304607   -2.24655826321412    1.56015408283176
H        -3.37534690810737    1.87304894251751    2.16824472537922
H        -4.41608940456251    0.65048797580486    2.92244404848589
H        -2.74400982392634    0.86053328048031    3.46140439739703
H         1.84898880480855    3.28714159125705    0.04306740066887
H         3.08564376567416    2.25442276345531   -0.66935850324501
H         2.11697454234024    3.30278353157593   -1.70978889572300
H         1.83175488382566    1.14086623415395   -2.96992232306415
H         2.49999103514503    0.09084073089352   -1.71044986498759
H         0.84541067588087   -0.17245754604515   -2.28089423606858
H         3.94263083412228   -2.74292652351493    3.18451674722229
H         4.21660147461666   -2.80325448971771    1.43734982657406
H         2.57177817832587   -2.93322253716741    2.06239562955938
H         4.96345499967047   -0.36164978718706    3.44476753706975
H         4.67252521310028    0.79368598471202    2.13089282318304
H         5.49466015130598   -0.72634809597988    1.79736368422673
H         2.93595283219674   -1.08082384222007    4.86899645957793
H         1.74069792657956   -2.17358169814885    4.14335023922520
H         1.22066358932299   -0.65079643618214    4.85295153133277
H         3.02147298159372    1.33789921855720    3.90831370958684
H         2.45477360797237    1.59391865960418    2.23856870437150
H         1.28886058557360    1.42274193613727    3.54392263211084

