75
CSD_code = GACMEE | q = 0 | S = 0 | Stoichiometry = C38H29ClN3O2PRu | MND = 6
Ru       -0.09160521901193    2.36781720274081   10.60046164599905
Cl        0.22276970739275    4.70863620137768   10.91320418054879
P         2.26193924541987    2.11638781516427   10.44101552397799
O         0.06358507493824    1.97984210458982   13.55977833685179
O         0.07956547351634    2.53598063931387    8.49728344698584
N        -2.05535723088293    2.60213999265081   10.66875213595680
N        -2.83056869935485    1.81183347958811   11.27958884501136
N        -0.60033250263644    0.42024353295997   10.20547248772059
C        -0.03281228300300    2.14825707959035   12.42859249626172
C         0.43834256047326    1.60595122979766    7.69638842580772
C         1.00923290991771    1.96164303419835    6.44464898793029
H         1.15562448998738    3.01418970073430    6.25078626108418
C         1.37978443998778    1.01822707109671    5.52783282702183
H         1.82898669717952    1.32632078573086    4.59418861322125
C         1.17821321922570   -0.34435208437279    5.77892310347632
H         1.46507666562599   -1.07842446332064    5.04174308482137
C         0.60603172153069   -0.72967042609670    6.96029436808723
H         0.43853628118552   -1.77810974281563    7.16798731881378
C         0.24480321368449    0.20661112281249    7.94728902419790
C        -0.37441632893195   -0.26835735160406    9.13105213933404
H        -0.72701842680634   -1.30241016475580    9.10796058624144
C        -1.33032731344056   -0.13603030374632   11.25433263524860
C        -1.07217793192140   -1.40721477599070   11.75408094324613
H        -0.25645403408389   -1.97705104268459   11.33323373217920
C        -1.81984344873881   -1.91824498935418   12.79942302052787
H        -1.58738825916771   -2.89573396035886   13.19379405401118
C        -2.86960417084620   -1.18306124128934   13.33274253582168
H        -3.45467801397727   -1.58835993904780   14.14373707553967
C        -3.17322429956079    0.05955201748842   12.81931912755944
H        -3.99543402590377    0.63907592502363   13.20823153910952
C        -2.40629128515808    0.61543632791602   11.78958368514768
C        -2.67439858147148    3.77179080595552   10.22026541562031
C        -3.79715436848219    4.26602791973565   10.89484521689916
H        -4.17371866931911    3.71637741086193   11.74407725144165
C        -4.37235613651846    5.45396314222852   10.49862870492136
H        -5.22622626654615    5.84035557011182   11.03496928165223
C        -3.84805542030782    6.15896574355926    9.42427997651960
H        -4.29604358448282    7.09425835184370    9.12325594314195
C        -2.74863636572185    5.66453100472953    8.74303077688328
H        -2.34233181607059    6.21040640811889    7.90500498548618
C        -2.15546428461695    4.47851993964436    9.13381417620798
H        -1.31422427287459    4.08435004974579    8.58219506780882
C         3.20502483934923    2.33282278066013   11.98928426493706
C         2.95129314004932    3.49751249841748   12.71024775668493
H         2.20060175099247    4.19161226786020   12.35277941745923
C         3.65241772567872    3.76158509378816   13.87176507945246
H         3.44807862681835    4.66463254228153   14.42725910062282
C         4.61202090128834    2.86916070131861   14.32177791083580
H         5.15745332892295    3.07238339048429   15.23163769927052
C         4.87199778546271    1.71451791121910   13.60325760985234
H         5.62209435561014    1.01819958611357   13.94997695788305
C         4.17558544481092    1.44429910330662   12.43819110025157
H         4.38708572600920    0.53904870320814   11.88601103118227
C         3.25189866723462    3.17722999799029    9.34283463504420
C         4.62994999616113    2.97671008629503    9.27320708130568
H         5.09067740584552    2.19614605661870    9.86393154299679
C         5.40139667257295    3.77610625121976    8.45296580386870
H         6.46863745097024    3.61699528234510    8.39668373649386
C         4.80828524255773    4.78398373960426    7.70711465483774
H         5.41592465176798    5.40752474486070    7.06748971221058
C         3.44332870563660    4.99586327479436    7.79013939928617
H         2.98418904572867    5.78985857033925    7.21963170454336
C         2.66207495874387    4.19684569064752    8.60794013428662
H         1.59826664091887    4.36676443573849    8.68898595351671
C         2.70633855110782    0.42759717890710    9.93363832936959
C         3.30100305884587    0.11458085123617    8.71789639803599
H         3.57364164209983    0.90182159805672    8.02972250226330
C         3.53053363267858   -1.20855977956729    8.38253365903162
H         3.99251444589357   -1.44646550579957    7.43602952645516
C         3.16545764996132   -2.22351237228726    9.25040566496897
H         3.34686276086502   -3.25437604047395    8.98412881136868
C         2.56194820999207   -1.91708734750768   10.46084127479442
H         2.27914579999974   -2.70957167024195   11.13961589368881
C         2.32566734819938   -0.59855758119357   10.79816384884226
H         1.84735537699082   -0.34264316408098   11.73792282001860

