85
CSD_code = GACMED | q = 1 | S = 0 | Stoichiometry = C30H45N6Si3Ti(1+) | MND = 6
Ti        0.50195569787345    4.41946459442508   10.11484568966358
Si        3.26869322022371    4.62267744659822   10.64598994598443
Si       -1.24291320183397    4.63428927099188   12.34517683309217
Si       -0.41624292433709    3.10981636370729    7.78998205233163
N        -0.80061916494397    4.52950491970123    8.69872338888789
N         2.14763199597244    5.18552472466007    9.45736432311694
N        -0.05491829607716    5.58031550032606   11.52690320104643
N         0.38692698020585    2.35059606036588    9.22078075772199
N        -0.51816504729910    3.10613302142570   11.70997421870808
N         2.17135221888825    3.26471990318206   11.12189214077229
C        -1.32592877087232    2.16216480851940   10.96240558280791
H        -2.08777236268700    2.72242087087402   10.41414799022544
H        -1.83357268620735    1.44110078963233   11.62135817417307
C        -0.45393117271246    1.40311865563739    9.94748452160062
H         0.16695519934659    0.66660238538278   10.46354913406938
H        -1.10629590068368    0.83916907640987    9.27349482952397
C         1.76884423173012    1.92107047264774    9.11147054608894
H         1.84942250235630    0.90021159039159    8.70708941475867
H         2.28816541270502    2.60268397132500    8.43242974041802
C         2.46652677946046    1.98599633292636   10.48050635836923
H         3.54183470791658    1.84382217828021   10.33320016366818
H         2.12986100940629    1.16074139316092   11.11290980460531
C         1.79376334615158    3.12228802179687   12.51574218060247
H         2.53189716852956    2.53251552883686   13.08065356368272
H         1.73918417578363    4.11935298749016   12.95913979337056
C         0.41050749974729    2.46108914181845   12.63374371532830
H         0.06936819343625    2.53645347699797   13.67139381445470
H         0.48413689479601    1.39400851548882   12.41119383219169
C        -1.33634091157767    4.60182191597898   14.25706422611322
H        -1.89640259329944    3.73855568742812   14.60613314494270
H        -1.86296530597539    5.48038131090919   14.61532623691154
H        -0.36488760239005    4.58612083730701   14.74252352459154
C        -3.04764183161742    4.78785524092592   11.72465457377309
H        -3.67992047102933    4.00960536857892   12.14241357453173
H        -3.12596628366305    4.74594852554025   10.64070008069595
H        -3.46860151956601    5.73859172204919   12.03649864892246
C        -1.89410305249440    2.05485698893391    7.18298282545914
H        -1.60889190504394    1.02303052758296    6.99973769474546
H        -2.27311639696995    2.44292559472807    6.24389687141283
H        -2.72550766701653    2.05777407365314    7.88217214669462
C         0.85322884205345    3.21762125076123    6.35650501337015
H         1.21990523521419    2.23566189662364    6.06981822232314
H         1.70969536158985    3.84252609666776    6.60171894911959
H         0.39198009944806    3.65021230160723    5.47409414493373
C         3.64393124891091    5.71507915080037   12.17311816280892
H         4.05491904358094    5.13970061186161   12.99790570074509
H         2.76163960698591    6.24322347132854   12.52727210384231
H         4.37930797075080    6.47208717698693   11.92004775525933
C         4.93260677047819    3.94177392285492    9.98290930445109
H         5.39448132996153    3.24403188527274   10.67543220682112
H         5.63811104349417    4.75338248006199    9.84305775333891
H         4.82978377181697    3.44729007963792    9.02099590743828
C         0.34399942036418    6.88801346904716   11.76253953708975
C         0.42522000252081    7.41214656013907   13.05750952310048
H         0.13360511402976    6.79668728766871   13.89408953015523
C         0.88247371379986    8.69879787966319   13.27182052463741
H         0.94052825721429    9.07915445823498   14.28050900546903
C         1.26806597508515    9.49601281388654   12.20688148875994
H         1.62877835387024   10.49727441503033   12.38028086363927
C         1.17249606485041    8.99763378769661   10.91749852209598
H         1.45254351759541    9.61228631942439   10.07544050961161
C         0.70923127409265    7.71543098907541   10.69294040188296
H         0.60347058183777    7.34632317811375    9.67945074404864
C        -1.59476867923350    5.57062326418603    8.23597574879152
C        -1.97165804296110    6.62103278886540    9.08280122352746
H        -1.64143119347580    6.61923902878759   10.11171335537156
C        -2.76456186346664    7.65527623804508    8.62225525135383
H        -3.03611086592980    8.45216646161708    9.29816550500092
C        -3.20856271497427    7.67758899021577    7.31090101297174
H        -3.82596630017822    8.48667331807319    6.95506439671753
C        -2.84654078647592    6.64587469445506    6.46135041131642
H        -3.18155324223958    6.64667862577229    5.43515386531619
C        -2.05305574566406    5.61031243348881    6.91371600644563
H        -1.76884627431988    4.81926545605099    6.23681800521892
C         2.43618734425689    6.18690287010003    8.54201557445242
C         3.60542089141478    6.94988178448404    8.63264482379048
H         4.28565087493516    6.76904588483272    9.44944984823656
C         3.88973006055585    7.93755528985971    7.71058918811406
H         4.79977695123012    8.50940970032686    7.81156369004352
C         3.01756511422203    8.20103976562365    6.66768747157077
H         3.24081485557276    8.97446969395951    5.95041430070270
C         1.85154941703507    7.46138898181168    6.56486943535969
H         1.15403683916137    7.65747122528531    5.76434750790732
C         1.56261279958654    6.46972288785244    7.48299414538481
H         0.64138579517009    5.91350933724565    7.38972409739241

