85
CSD_code = GACMIH | q = 1 | S = 0 | Stoichiometry = C30H45N6Si3Ti(1+) | MND = 6
Ti       15.69875819900456    2.81986857747162   11.59134090611876
Si       13.15480934905924    1.65050132199238   12.12669801627348
Si       17.83606763143603    1.16098108423580   10.68253455293096
Si       15.80525058490555    5.59973677403493   10.95913320387318
N        13.75018275557688    2.26536982018166   10.53058083880594
N        15.55091751425787    4.24310962388922    9.78921319491609
N        16.33279204563340    1.58674010302086    9.76809655331945
N        14.72982323137563    1.71886072722165   12.79854206180667
N        15.51829039007234    4.57141885395604   12.30060468776591
C        16.64184202093750    3.85872156261716    8.91273915502120
H        17.57929789436913    4.03026507935579    9.44887866098185
H        16.65614628444896    4.45663922029054    7.98800789284195
C        15.63622921122877    0.24018464758822   16.61193713462676
H        15.88153494139670   -0.14086429486971   17.59075643847437
N        17.52080769059586    2.35580677379256   11.87058762013866
C        16.33648504138250    5.45394731730313   15.79202284066685
H        17.17983697393362    5.40660993384324   16.46405838695043
C        14.94956790785343    2.05742710540506   15.19759454969011
H        14.63705954521801    3.08333514418887   15.07045523462211
C        19.52487163644935    3.51644169496458   12.58492641286085
H        19.65431983871115    3.87931676480612   11.57386976142322
C        18.43783921705515    2.68771300545764   12.87158536342244
C        15.02856652841457    1.23240081315180   14.07447001304000
C        15.36216101938922   -0.11177652372175   14.25398660445675
H        15.36438412395609   -0.76890391001132   13.39424397586894
C        13.90627336954671    1.24553128945170    9.49811836812816
H        13.79663044041489    1.69096554740225    8.50601915052713
H        13.13760849547578    0.46907139405505    9.57520332484951
C        15.29075533311069    0.58571484854621    9.63025735456727
H        15.29328849560517   -0.02833883532321   10.53559274225382
H        15.46494737401319   -0.07160061130504    8.76383290204124
C        15.39603536543249    5.04174736820008   13.61014581679867
C        17.56494711157073    6.33321704366452   10.80114386661591
H        17.81820877504543    6.61358540814282    9.78306508657208
H        18.31935248378406    5.64209087631284   11.16706081361427
H        17.63850152341431    7.23005857940805   11.40783168866363
C        13.22145113930530    3.52060539127701   10.02832933198190
H        13.01231453809426    4.16374710745576   10.88766977703982
H        12.28530000194471    3.37566315276101    9.46663450535697
C        14.19639557968822    5.60846332459803   14.04674222031371
H        13.37475456684818    5.69800236177521   13.34830427756992
C        17.80991902555922   -0.66771065544922   11.24455446598775
H        17.07398733323707   -0.83953295116504   12.02462509249817
H        18.77681701246286   -0.93264036905411   11.66019203752489
H        17.61171065517393   -1.35637537734137   10.42845944303664
C        14.24843601390205    4.23320930277962    9.13059441017429
H        13.89093208314648    5.24750632695669    8.92281876088762
H        14.31674589792578    3.72648540346803    8.16465676787982
C        16.47593839831498    5.00019948673515   14.49352565467673
H        17.42106094855928    4.61220668749662   14.14311421149718
C        19.41989475190652    1.39785010922017    9.63422993760597
H        19.47579164447915    0.68889893671690    8.81367781859175
H        20.28588952826667    1.22165318854019   10.26418645082854
H        19.52492325838087    2.39698814601473    9.22194621732069
C        15.12886538204604    5.97519895513923   16.22790734621465
H        15.02178315493622    6.32667350174217   17.24203825302369
C        16.55558449949351    2.36483525413580    8.55371224492125
H        15.74421848695624    2.19681196655262    7.84107683663071
H        17.47949672273642    2.06915961040912    8.04528953420749
C        14.06374440751707    6.06183911759395   15.34629944486272
H        13.12701653052699    6.48979145278596   15.67073263754911
C        20.43056283594291    3.85748696661847   13.57243422846557
H        21.26066860763885    4.50616489665436   13.33605979027920
C        15.67086619021710   -0.59936222503285   15.51050811695618
H        15.93432576018139   -1.63939017005378   15.63155001558882
C        12.38255235179132   -0.09571716496305   11.99782851473230
H        11.46988487446694   -0.09906959630641   11.40973523737529
H        12.11896841150671   -0.43631358407080   12.99393267804633
H        13.05645919524734   -0.83656557557781   11.57781648649473
C        14.56200393926478    7.03077313815722   10.69719376988977
H        14.71375756569346    7.53431704747185    9.74722225184365
H        14.71015191411160    7.77180363258158   11.47603272770417
H        13.52316444860415    6.71866316368004   10.74941677558414
C        11.82433401303720    2.81038099148622   12.86483556547306
H        11.01460296639567    3.02043998903438   12.17239047438468
H        12.25148966898249    3.75429995772349   13.19144845163473
H        11.38403943589635    2.34401902854884   13.74028856282890
C        18.31784435249961    2.16534202959289   14.16082493337490
H        17.50415531107218    1.48850327166202   14.37587385469134
C        15.26355542942993    1.56503397500385   16.45076828924355
H        15.20737677404921    2.21935986780683   17.30739870256130
C        20.28016155841410    3.36437207810518   14.85820437505209
H        20.98702995612373    3.63329313937420   15.62723671149856
C        19.22733421826500    2.50988404523210   15.14367462512284
H        19.11504831568439    2.10185753740547   16.13667200746355

