105
CSD_code = GACREH | q = 0 | S = 0 | Stoichiometry = C36H64P2PdSe2 | MND = 4
Pd       -0.00045369185781    0.00067581144914    0.00004499274228
Se        1.57042587914917   -1.60900977778653    0.88293563011143
P        -1.48155860543098   -0.41154756900287    1.70431267022727
C         2.12735556488767   -0.52334822244117    2.34090589173014
C         1.72127909198453    0.80643647039720    2.41485084787250
C         2.12190477267327    1.59580753107870    3.47766248272268
C         2.92980580841984    1.06958099218682    4.47127694498431
C         3.33889184704322   -0.25350174137777    4.39535196698566
C         2.94373248996383   -1.04894683261561    3.33850516941734
C        -0.94508671214719   -1.27598426033117    3.24364330312639
C        -2.04720896912652   -1.84453250453221    4.12943318992225
C        -1.44981498018090   -2.45260359139669    5.39785931677565
C        -2.52523207914850   -3.04856640577025    6.29787578837835
C        -2.45280627669569    1.01202028978539    2.34573745939251
C        -1.53324872434052    2.18431140712833    2.67247917721196
C        -2.30157694759838    3.39148702073213    3.19909806262857
C        -1.37479026211939    4.57048564080583    3.46744762919990
C        -2.76457138896715   -1.50581533910371    0.98030967571912
C        -2.13201514536131   -2.82337643966310    0.52987100395480
C        -3.03625573783522   -3.60417157719583   -0.41885888021911
C        -2.34521158036140   -4.85719901299078   -0.94150546196426
H         1.08315509854225    1.22935713638916    1.62417825158655
H         1.80259193021452    2.62793581807283    3.52723096683523
H         3.24226938909790    1.68790037554342    5.29998474750919
H         3.97127913270160   -0.66726238681526    5.16779771355637
H         3.25723124740183   -2.08113009440812    3.27157577422289
H        -0.26952416216794   -2.08300244533363    2.94018228607027
H        -0.34473428842374   -0.55432844279764    3.80980522515353
H        -2.75660942297505   -1.06399684837717    4.41352143591110
H        -2.59899985515552   -2.61966913416053    3.59456721799118
H        -0.90222601103071   -1.68155528741796    5.94503012105608
H        -0.73423274082253   -3.22986282168565    5.12046526645261
H        -2.07945557719420   -3.47600379808628    7.19261608491494
H        -3.06799976527915   -3.83435374967362    5.77667063756917
H        -3.23767746769265   -2.28419292757661    6.60151400899328
H        -3.16602442471473    1.30654923149352    1.56952446373196
H        -3.01187037719502    0.69349019191777    3.22938880509664
H        -0.78659963200638    1.87595956948814    3.41075581280851
H        -1.00680624776118    2.47894548276628    1.75259387937750
H        -2.82030842697037    3.11683014981533    4.12130684948415
H        -3.05481223616251    3.68216975449932    2.46361738182407
H        -1.93420235394476    5.41765089775622    3.85657855279688
H        -0.88292517201575    4.88005692183390    2.54767764189645
H        -0.61153275455749    4.30049578815680    4.19504399840278
H        -3.57673371567178   -1.66525757682294    1.69563381611615
H        -3.17366259892705   -0.97021564480423    0.11321905317998
H        -1.17530695055766   -2.61119856543769    0.02332272863025
H        -1.89578240609532   -3.44061708372973    1.40016906152858
H        -3.95495677726834   -3.88187819744020    0.10432815315529
H        -3.31477600935379   -2.96532359883887   -1.26075010243218
H        -2.99895725662985   -5.40253684747732   -1.61803790988447
H        -2.07192223344578   -5.51639594609677   -0.12027066527807
H        -1.43741398832724   -4.59158581267464   -1.47946689215088
Se       -1.57025658267619    1.61040892823930   -0.88357431656021
C        -2.12741134465070    0.52407734338917   -2.34098084821708
C        -1.72159672402334   -0.80576918290210   -2.41535949345189
C        -2.12239411005472   -1.59469860632194   -3.47844468495684
C        -2.93030611462854   -1.06798812641919   -4.47180840674804
C        -3.33925502344200    0.25510435902553   -4.39530675411511
C        -2.94383686776722    1.05010312984844   -3.33824342056393
H        -3.25717581338226    2.08231445202842   -3.27087562048279
H        -3.97155621223416    0.66930302917611   -5.16757929606503
H        -3.24287851006680   -1.68593191679411   -5.30075674973004
H        -1.80322099257209   -2.62684444222726   -3.52844200346758
H        -1.08346567602554   -1.22914585679229   -1.62498709100371
P         1.48188919636521    0.41085093448343   -1.70369335024123
C         0.94525802448646    1.27541326866408   -3.24298950802521
C         2.04715348074373    1.84379835528635   -4.12923416894870
C         1.44972160006965    2.45149981673812   -5.39784776461700
C         2.52501420146662    3.04701129182825   -6.29833077130120
H         2.07915129290055    3.47409636819762   -7.19320311542858
H         3.06793300542678    3.83298342521667   -5.77756423484577
H         3.23735529183833    2.28245538870144   -6.60174956388452
H         0.90196586508514    1.68032095804256   -5.94466889797975
H         0.73426372247635    3.22894627714215   -5.12067280062070
H         2.75650639665274    1.06319792153284   -4.41323792581192
H         2.59906695001434    2.61908400817154   -3.59471524368909
H         0.26977899259309    2.08254462416928   -2.93959333479956
H         0.34473432213021    0.55380957151888   -3.80902424775710
C         2.45314520015712   -1.01255748719843   -2.34531065905104
C         1.53324703032773   -2.18461028449348   -2.67190151864949
C         2.30152620062051   -3.39184579549718   -3.19844244107326
C         1.37456990261996   -4.57071768592248   -3.46671765626891
H         1.93391728945042   -5.41794675173503   -3.85578927159481
H         0.88266433434453   -4.88019633562838   -2.54693671136757
H         0.61135689402176   -4.30069282068559   -4.19435011282255
H         2.82030112603596   -3.11729463061272   -4.12066540567679
H         3.05471410099970   -3.68257499184762   -2.46292436719759
H         0.78664450896651   -1.87618496204574   -3.41020397194589
H         1.00677076220155   -2.47906525101516   -1.75196398946141
H         3.16630500368624   -1.30704833186151   -1.56903386138414
H         3.01220101265523   -0.69403629070935   -3.22897624490995
C         2.76476219786022    1.50566196957382   -0.98021254387139
C         2.13240870446786    2.82348855886783   -0.53019079647191
C         3.03658065673746    3.60447307485361    0.41844323671549
C         2.34564564915809    4.85769444087863    0.94078267710887
H         2.99936819635633    5.40307981287566    1.61730262590420
H         2.07255564350726    5.51676316003738    0.11938074661821
H         1.43773394147976    4.59230833580665    1.47866552849146
H         3.95535677269036    3.88195331722556   -0.10472437655112
H         3.31495682281457    2.96578424493727    1.26049942916915
H         1.17564308099936    2.61164376554970   -0.02366987340784
H         1.89634031157302    3.44054137091686   -1.40066482935148
H         3.57693634944371    1.66488237077424   -1.69557340455813
H         3.17387163751989    0.97037587956006   -0.11294982211083

