33
CSD_code = GACSUZ | q = 0 | S = 0 | Stoichiometry = C15H15O2Re | MND = 9
Re        2.81152598511061    6.78624081072074    4.95678060365930
C         4.42270375073021    5.95321160148158    4.30702478526426
O         5.41954406000029    5.49905956757241    3.95750883060383
C         1.89722215128538    6.12379106487207    3.40158897977178
O         1.31012950312043    5.75989999207593    2.47548509996940
C         0.41387072147866    4.55132778174777    5.77284156087608
H        -0.40917844383973    5.21294721146023    5.51393454739925
H         0.05012502694576    3.83324737252615    6.51007618524802
H         0.71700823591728    4.00913747472953    4.88224461550905
C         1.55379353592552    5.32525534165275    6.37128300581226
H         1.24554582584695    6.01184708887857    7.15668028191947
C         2.86566169955508    4.86315816729539    6.40320647449713
H         3.51335631589769    5.23428505470914    7.19998053259469
C         3.27555749155975    3.51801454497583    5.86469745655131
H         2.93809075826629    2.74283585185143    6.55410493839687
H         4.35602684344287    3.45104155397850    5.77765352355737
H         2.83736330519292    3.33045577626661    4.88809914156617
C         3.95279616339241    8.73825657851511    6.09252363777270
C         3.38133409550963    8.96843737414275    4.78176893384600
H         3.89959015115148    9.46322842941526    3.97206711100799
C         1.95423018202409    8.95417858282566    4.94514508425840
H         1.24189814180749    9.27561239719352    4.19790859680060
C         1.64707420606989    8.51502900529067    6.23525717269845
H         0.65634226607440    8.48396415049346    6.66538986455657
C         2.87286873510929    8.43246272700087    6.98788816117825
C         3.13335214203927    8.17960706240334    8.33764844098181
H         2.32364630520835    7.95252900208344    9.01995285340540
C         4.43585246479889    8.23883349292531    8.78141572645223
H         4.65261101835865    8.05421546433063    9.82374450784623
C         5.48834936481541    8.54608012968879    7.91106117391140
H         6.49365574315148    8.59447226065379    8.30280612922944
C         5.26455903704873    8.79478736275655    6.57525593477328
H         6.07939321700302    9.03784972348501    5.90797610808484

