73
CSD_code = GACTOV | q = 0 | S = 0 | Stoichiometry = C26H42AuClP2Si | MND = 3
Au        3.84465693203131    4.80137737972172   24.81178060798072
P         1.34017608463687    4.57227063167861   26.15421354016804
Cl        4.43623924726874    2.55695625416789   24.78372062083890
P         3.80747886874123    7.04410129269860   24.34875655712851
C         1.74038481875109    2.88974250556175   26.88467258905639
H         2.35978524271627    2.41627032662432   26.11233725444912
C        -0.13546130290948    6.81892092759701   29.18503258061653
H         0.21617468619365    7.66770559785707   29.75243439169547
C        -1.06483647498255    4.67102300635182   27.71981423105813
H        -1.45980055579106    3.85362777173703   27.13624326658008
C         0.17152976272965    5.22747347770920   27.41478532890033
C         0.89437713664678    3.36098463256881   23.67020900099617
H         0.19715119767057    3.06688819703632   22.88594305132797
H         1.38385527719686    2.46690486952095   24.04942521390532
H         1.65965336505746    3.99626066315261   23.22562354138035
C         0.16037926537667    4.11049793626679   24.77470489218243
H        -0.62519390907134    3.46481658265707   25.18257287419000
C         0.62757538672738    6.34200123030260   28.12750124360527
Si        2.15142949303056    7.28977921833369   27.50340364597405
C         4.92521521161113    8.24830276000081   25.22959230632989
H         4.37631365749289    8.42795618909939   26.16277017310324
C         6.27977184409598    7.64066916693778   25.57881312873887
H         6.94290187662800    7.61525031347661   24.71885815402939
H         6.16125834037200    6.62167741888385   25.94448804572035
H         6.76317248787912    8.23117141703920   26.35558060507666
C         4.24071692205718    7.14026902242817   22.54452782984290
H         4.12293291290504    8.16849798615607   22.18352892966861
C         5.68556444058398    6.69302857912427   22.33427568747773
H         5.88005538591198    5.77306590042813   22.88713028925628
H         6.39660431585545    7.45106570829334   22.65190714404295
H         5.85861661316404    6.49448420356811   21.27768461400133
C         3.79583036195297    6.40949760839433   27.88742921497443
H         4.59650844657008    7.12308254619440   28.05035247124740
H         4.10341558510595    5.72413891859944   27.10362264422705
H         3.68495519769083    5.83577432761334   28.80211229753958
C        -0.30312007804334    9.07497603407448   24.74754305150846
H        -1.28674535813817    9.51147374978094   24.83834102338323
C         2.21811295921121    7.90797003753074   24.53983112931205
C         5.05183516728755    9.57896223218885   24.49382491494541
H         5.55819530916688   10.30128115501684   25.13213784325082
H         4.06844049073000    9.97557018037141   24.24425660898489
H         5.63236997480002    9.47728898500581   23.57989060630718
C         1.56164138490389    7.89351235617288   25.77900602726392
C         1.61699658238040    8.52611952852063   23.44189718973289
H         2.12360235411861    8.56466925423526   22.49046721933339
C        -1.34226960769057    6.23064755303452   29.51903166907774
H        -1.92050643681555    6.61024932056128   30.34929441825243
C        -1.81967749740939    5.17216592114521   28.76562738716137
H        -2.77953742168068    4.73151508524812   28.99556893655814
C         2.29261182298577    8.94031085246672   28.47309023098510
H         2.52880457693418    8.76025528768099   29.51714488729426
H         1.37554211877304    9.51837391768564   28.43330244954648
H         3.08253589812120    9.56725176823208   28.06869463810146
C         2.61591819378968    3.10496285934934   28.11692168121307
H         2.10682146454471    3.72597336438877   28.85502556687558
H         3.55342494140969    3.57777017315548   27.83601854169501
H         2.85170547185446    2.14642972896695   28.57617251922870
C         0.29748876285120    8.48169307589751   25.83978879231882
H        -0.23732211114852    8.46533621210733   26.77812271281214
C         0.58101200869939    1.96137030378029   27.22720705998251
H         0.99011421971999    0.99610823608650   27.52389844561985
H        -0.07675318418603    1.78867229155515   26.37876399070775
H         0.00085225129967    2.34910104161004   28.06254642827464
C        -0.48285768076645    5.38300139589656   24.23208577929085
H         0.27457919429771    6.04205103110937   23.81071895157366
H        -1.00062799074590    5.92610489285141   25.02182179089597
H        -1.20063877807135    5.14253737616044   23.44852186999125
C         0.37125061932163    9.11342384151831   23.54056523639083
H        -0.06944049537027    9.59107933694997   22.67782219940024
C         3.30926177332609    6.19579967870199   21.78383682851572
H         3.43250631700181    6.32474256517778   20.70960457590494
H         2.26204428154626    6.36160771997439   22.03373936802185
H         3.55554037909379    5.16350708803987   22.03251946296823

