67
CSD_code = GACTEL | q = 0 | S = 0 | Stoichiometry = C24H36AuClF2P2Si | MND = 3
P         2.26866370149399    2.58779669930093   18.16674833639092
Si        2.19085501924986    4.28901640513860   21.27972685000792
Cl        6.07803170595436    3.32415328323883   17.21393798329449
F         3.41913373890621    3.26365029550914   21.39910901808589
F         1.53954029349602    3.89948508556399   22.71256654624000
C        -0.49121331869985    3.00224985555138   18.25247566298091
H        -0.50920514433098    2.44340194263387   17.32974642045570
C         0.71910675327803    3.21425176985852   18.91042011192420
C        -1.68142963798547    3.49458648779354   18.75147326629832
H        -2.60500950687827    3.31524705356298   18.22113292043274
C         3.94533941664516    8.13705995801093   21.19148300130352
H         4.74255195146973    8.67675420294201   20.70464613656181
C         0.73234569487120    3.93295112015627   20.11484654414319
C         1.97642125248540    2.60307237432196   16.33544253747360
H         1.04774316590109    2.08225074109392   16.07569062042643
C         3.71488030145774    6.80045181452268   20.87117736406079
C         2.67768023081333    6.10630093217465   21.51032776912056
C         2.28484132670128    0.77965729075894   18.60957723463663
H         3.14498677011011    0.38632755625554   18.05120742945605
C         1.91156755220537    6.79725060507311   22.45180189621086
H         1.11937377692576    6.27703110290355   22.96720375760183
C        -1.67712154571832    4.21582907567793   19.93178107033786
H        -2.59664289596173    4.61247147978101   20.33499820585429
C         6.41079590152361    5.75575914872425   20.44854287747818
H         7.03987592616800    5.36727283641792   19.63559749396507
C        -0.48452322934021    4.42308906383305   20.59659446765093
H        -0.49614561629410    4.97505261035982   21.52393764841774
C         2.14634715747807    8.12272675520901   22.76084645684093
H         1.53295221152270    8.62298976189467   23.49503616388129
C         5.05448659378238    7.31430208424784   18.34340822334767
H         5.35307138359885    8.25727528721414   18.81514429595096
C         6.24833511391024    4.66034583134570   21.49846757191996
H         7.20776094399412    4.43735426143551   21.96131756590376
H         5.87187491841272    3.74930293319404   21.03662555657166
H         5.55066260270426    4.96584012313637   22.27850666667090
C         3.17163001602865    8.79909877358773   22.12479660852925
H         3.37147776485415    9.83523458444257   22.35516973067956
C         3.15764763898682    1.91489643495597   15.65590978116540
H         3.13233731406121    2.10902661496740   14.58511911086664
H         3.13368101152155    0.83725966381378   15.80384265512267
H         4.10140612159018    2.30036096261025   16.04528942440763
C         3.72486128333419    7.51851083266234   17.62062629003385
H         3.81309029052135    8.30317808588820   16.87126728651112
H         2.93631386279413    7.79536251258739   18.32194926079809
H         3.43153768902956    6.59714335243349   17.11885849159130
C         1.88416943448617    4.06237794722615   15.89857657576560
H         2.84892816618732    4.54441448739729   16.05394043082158
H         1.12577633934593    4.60284313658833   16.46725517448124
H         1.63793088155251    4.12934999579321   14.84037175010886
C         7.04335897080672    7.00796953064552   21.04414037421331
H         6.44814193301001    7.38487304904896   21.87438430781317
H         7.15840336095897    7.79479222612022   20.30136281694353
H         8.03328139665477    6.76102518546832   21.42466082130455
C         6.14784953584833    6.85296513153898   17.38440545640571
H         6.01468671706839    5.80439025328258   17.11404820033854
H         7.13469349722675    6.96212346266037   17.82928454062802
H         6.12032429787358    7.44658379907991   16.47238048251176
C         1.02214095175134    0.02062488689652   18.21544786408285
H         1.13931879678444   -1.02985713019213   18.47700317187233
H         0.83295418790220    0.07832295373232   17.14584354529969
H         0.15646306713612    0.40743676631461   18.75059518587111
C         2.57293127427450    0.63576307771860   20.10020059160778
H         1.78291573378027    1.09053794566806   20.69738754060139
H         3.51555230208153    1.11549020738541   20.35291573159335
H         2.64207309720505   -0.41705682180107   20.36815936358339
Au        4.04234310424366    4.03111222045467   18.59034172370938
P         4.77314545120953    5.99178804229199   19.61322003882244

