103
CSD_code = GACWAL | q = 0 | S = 0 | Stoichiometry = C52H36CdN10O4 | MND = 6
C        -1.35526581256886    4.99653284365283    7.94738233905212
H        -2.31390106875796    5.38960064122551    7.63381856540676
C        -0.80379903675337    5.32231816507602    9.19069586741934
H        -1.33802424963186    5.97251220696273    9.86656826421726
C         0.41704478918749    4.79190003909508    9.53706630725341
H         0.88776026581061    4.99398309518556   10.48733425586927
C         1.06884659263436    3.95585293206960    8.62341857097585
C         0.43578719936629    3.69172410036188    7.38772852496865
C         1.05278112238826    2.83119372604497    6.39952659984013
C         2.30575223948941    2.21582316646135    6.64838833062015
C         2.90923870452636    2.49581470068326    7.89999565326515
C         2.33034102132666    3.33523922980452    8.85771601839875
C         2.83763079592980    1.38678174057593    5.65097017407073
H         3.78630534061653    0.88994748538284    5.80372259163201
C         2.13294341895342    1.21589236974657    4.48264592385876
H         2.51447900174723    0.58523427627558    3.69430155303241
C         0.90372834048820    1.86545891511381    4.33297361029751
H         0.31544410069060    1.76147932809560    3.43080585216321
C         4.18363936931281    2.66784663863879    9.68806930588981
C         5.29932053016872    2.49172267048041   10.59100024064984
C         5.27167594596739    3.14288746945421   11.82808140581299
H         4.40990445784272    3.74593498760845   12.06468917483937
C         6.31917657126334    3.01367215397445   12.71068771056518
H         6.30187075728498    3.51063573467314   13.66772556870496
C         7.43455076180790    2.23712207492507   12.38827966014370
C         7.45447721071947    1.57521103758953   11.16179884622907
H         8.28713821008511    0.93856109849915   10.90187178721699
C         6.40389519072567    1.69859661573448   10.27592429280928
H         6.45274339589590    1.16731695542306    9.33586864676515
C         8.53958640644152    2.13463177691691   13.34943978982115
C         9.84878398531126    1.84253783193203   12.95827695906885
H        10.09457057864839    1.70160417816226   11.91735156391442
C        10.83538737120449    1.76528516690679   13.92468102220437
H        11.85605330001631    1.54292507743697   13.64672546765187
C        10.49652973371384    1.98198923436631   15.25110808942603
H        11.23544852357051    1.92614188528156   16.03502566374996
C         9.17323878177659    2.28377440538373   15.53934611583065
H         8.85168153661113    2.47210102831798   16.55607399324187
C        -1.32197808961529    0.92573451450656    7.67315598203152
C        -0.80555727128542    0.03983491443459    8.80844251836661
H        -0.40119709513242   -0.88497678546605    8.40786788039579
H        -1.61297651741394   -0.17003060244728    9.50440667590293
H        -0.02422195887691    0.57993433042456    9.34106047920810
Cd       -2.02712812868379    2.59950426475796    5.76389191589099
N        -0.75894749174423    4.21022965045142    7.08238440796416
N         0.38741780740808    2.63778722758762    5.25879841796480
N         3.13691722083074    3.42187136046636    9.94466285569514
N         4.08816018545610    2.08253358085679    8.45127319621494
H         4.75390495337623    1.45737825105383    8.03066207203223
N         8.22793472437826    2.36004276898755   14.62572973387813
O        -2.00720069310795    1.92297051118176    7.97663975124938
O        -1.00817034037754    0.63081919293801    6.50268911207183
C        -2.69071500903359    0.19789895327983    3.58155788802327
H        -1.73203472239174   -0.19315056503967    3.89756949368441
C        -3.23882375889362   -0.13001708176139    2.33732919777054
H        -2.70236396198173   -0.78064046230969    1.66363179634634
C        -4.45953605986574    0.39841734738176    1.98749299216203
H        -4.92814004222898    0.19396279941125    1.03668407588502
C        -5.11452248090635    1.23473519051571    2.89860695362039
C        -4.48446908245250    1.50146894504981    4.13527584472344
C        -5.10446597119125    2.36305752858830    5.12066453290752
C        -6.35738513866182    2.97694930703874    4.86795482868170
C        -6.95780090852989    2.69433800519646    3.61546944347319
C        -6.37616671143852    1.85362884653896    2.66053977515069
C        -6.89232549607334    3.80700702998643    5.86288079142680
H        -7.84114201531696    4.30266795679703    5.70719850445827
C        -6.19082435639258    3.97978042177471    7.03283667528985
H        -6.57446305531671    4.61177852375998    7.81908170774615
C        -4.96173273154592    3.33098342549839    7.18665554754442
H        -4.37485613593093    3.43807326544107    8.08940590500196
C        -8.22817592169968    2.51811777868161    1.82494656036090
C        -9.34210644943513    2.69182458122262    0.91938000869056
C        -9.31158139416760    2.03839500526992   -0.31644314906979
H        -8.44899429376324    1.43541138955928   -0.55020711632173
C       -10.35729279323152    2.16551469930895   -1.20146926214454
H       -10.33782952394491    1.66670231363379   -2.15750560386779
C       -11.47374769588686    2.94201294546885   -0.88275603570916
C       -11.49652080876177    3.60625483880073    0.34241444983023
H       -12.33009742137954    4.24285467900536    0.59950748826978
C       -10.44772083634529    3.48501008795329    1.23068953576805
H       -10.49879301662248    4.01797849102492    2.16966913677685
C       -12.57705916710101    3.04164955089728   -1.84613131084976
C       -13.88713221465422    3.33392536595231   -1.45804592333920
H       -14.13487858140137    3.47749259596918   -0.41794552355205
C       -14.87189779788376    3.40899267632133   -2.42653035560500
H       -15.89314981672064    3.63174234720654   -2.15099602423377
C       -14.53025055214956    3.19065369686293   -3.75198489767038
H       -15.26778053701440    3.24401596606058   -4.53734601754707
C       -13.20612475276631    2.88977479384562   -4.03721222002327
H       -12.88294870581383    2.69730362402427   -5.05264862380233
C        -2.73463200114901    4.27702559231907    3.85869391427434
C        -3.25164452408160    5.16519434973516    2.72547583207843
H        -3.66258809263160    6.08596697062505    3.12866244640264
H        -2.44230302710159    5.38273964038022    2.03411990432401
H        -4.02754382115178    4.62337834168329    2.18676180375360
N        -3.28982224527453    0.98480103215614    4.44406913028992
N        -4.44221377339460    2.55834868982428    6.26286755367077
N        -7.18019597852377    1.76463985410727    1.57188187226934
N        -8.13586833360563    3.10565282081685    3.06092976478110
H        -8.80310726311156    3.73086345096159    3.47908561389546
N       -12.26272883596759    2.81466349533197   -3.12149679811963
O        -2.05187179125609    3.27885771483875    3.55245809795816
O        -3.04455308349543    4.57158102098373    5.03022048962927

