84
CSD_code = GACXOY | q = 0 | S = 0 | Stoichiometry = C42H37NOOsP2 | MND = 6
Os        2.04965431911327    3.77783370473609    0.24022091626699
P         1.85436798722239    2.74099191047377   -1.81962638840823
P         3.10330246606172    5.86551872703885   -0.22080579169564
N         1.09393229093836    2.31719398392834    1.04508674968087
H         0.64848241479182    1.50410708593683    0.60601848736545
O         2.11655248551075    4.33262626869841    2.23401828462405
C         0.91131413832862    2.35342063895935    2.38515826196096
C         0.22623453514125    1.40754420221896    3.15819636850697
H        -0.22230890785478    0.54780355777028    2.67589153321296
C         0.13646792943451    1.58822439991953    4.51801793786396
H        -0.38778844978296    0.86345054771890    5.12340533866868
C         0.71918821299281    2.70340562300783    5.13013820335753
H         0.63225920128589    2.81938299811420    6.20102356396467
C         1.39524386285346    3.65023849347307    4.39927281542802
H         1.84428612143524    4.51498784573540    4.86522246982303
C         1.50766157467298    3.49989081114437    3.00421072267672
C         0.13398913842587    2.30435469665988   -2.25660285317747
C        -0.76126077353555    3.33484968331607   -2.53785978782689
H        -0.40810122348465    4.35666594624822   -2.54429144792633
C        -2.09121906020193    3.05921647794437   -2.79005957856463
H        -2.77519565463928    3.86491648025803   -3.01446799017432
C        -2.55066539043188    1.75194019380362   -2.74453112256977
H        -3.59154883056933    1.53627414909485   -2.93570081633521
C        -1.67355277612207    0.72524793585097   -2.44077552530340
H        -2.02984530762827   -0.29371529962001   -2.39144683331312
C        -0.33831859023301    0.99721333998920   -2.19490042123041
H         0.33855578896790    0.18771952512092   -1.95747800801401
C         2.48786248544591    3.54642480113082   -3.33849421955265
C         1.78986251304531    3.67615917782555   -4.53323150765706
H         0.78526926519021    3.28665107884677   -4.62359325260523
C         2.38298913773245    4.31632207088089   -5.60869382141387
H         1.83652712344241    4.42171297091309   -6.53496443665309
C         3.66906577309322    4.81810003115112   -5.50378765490720
H         4.12299559208129    5.31811429454651   -6.34670133927468
C         4.37406942713573    4.67596025956708   -4.31833704071972
H         5.38005325420305    5.05972792280495   -4.23321007348892
C         3.78459842539579    4.04494867747129   -3.24083580858457
H         4.31306976530133    3.93180579218713   -2.30137474694464
C         2.66887932019124    1.11289971151694   -2.04748480802387
C         3.21810133613176    0.43862310959399   -0.96504816047491
H         3.19164677123858    0.89827644107593    0.01335265836962
C         3.80481796364515   -0.80334116789760   -1.13887720007049
H         4.22958731185207   -1.32091543823438   -0.29098387949434
C         3.84921579115704   -1.37915204695640   -2.39683549879068
H         4.30840966934577   -2.34718419075347   -2.53398966256133
C         3.30318365854557   -0.71095186726365   -3.48202179599172
H         3.33666342950220   -1.15890852119839   -4.46466127656598
C         2.71459927810836    0.52752507692889   -3.31119798532506
H         2.28528159354195    1.04473896747075   -4.15784468110739
C         2.40293148627969    7.11019305079270   -1.36846719928788
C         5.37413845430451    6.73374902889452   -1.69895133975137
H         4.69539755942580    7.28201772757361   -2.33554625795222
C         6.73409464955115    6.76455976761668   -1.95744527465808
H         7.10620441180877    7.34469867394645   -2.79003173565950
C         7.61589753156717    6.05803358948080   -1.15772884294108
H         8.67605334953927    6.08684108906894   -1.36313587147310
C         7.13304000666165    5.30543839057817   -0.09871786178000
H         7.81687682844288    4.74503468376729    0.52246567655024
C         5.77569313253064    5.26779492969798    0.15889070009807
H         5.38682459451383    4.66312669163634    0.96770342087490
C         2.99496846124419    6.84478148212734    1.31786863418110
C         1.70917170108805    7.21385010696793    1.70888370081447
H         0.86977379345314    6.93285641368820    1.08665585745679
C         1.50769306253008    7.90927619992235    2.88361732916330
H         0.50620241860447    8.18031749994474    3.18587646785938
C         2.58978375868239    8.24902285657631    3.68132262237871
H         2.43368699199572    8.78622942913507    4.60575708969009
C         3.86910429598892    7.89573942648717    3.29162514515038
H         4.71514968856278    8.16096453654685    3.90986140479083
C         4.07579951969109    7.19369043395333    2.11496351241400
H         5.08083650439867    6.92176090758004    1.82611211316062
C         4.88468233899609    5.99329012343930   -0.62936674863493
C         2.66012756364742    8.46856709508301   -1.20039577898354
H         3.27091116475152    8.80123527986826   -0.37236009528435
C         1.35784828758913    8.96241889490324   -3.15665475374924
H         0.95310683708356    9.68453309037783   -3.85062815467306
C         2.13542547502098    9.38726528912604   -2.09028743348063
H         2.33500422496027   10.44031099586702   -1.95374771992322
C         1.61770699035166    6.69430140720458   -2.43343712410334
H         1.41911317321090    5.63707013869226   -2.54138590684272
C         1.09929911517474    7.61304999010992   -3.32824399084796
H         0.49508602423401    7.27612052336986   -4.15819576195018
H         0.78745528711250    4.65645444150478   -0.14900224853069
H         3.55477492908278    3.29776473518973    0.24830752891951

