44
CSD_code = GACYUH | q = 0 | S = 0 | Stoichiometry = C20H19NO3Pt | MND = 5
Pt        1.55789365827344    1.51106942906414    1.62281865025255
O         1.49668640499701    2.16642403273577   -0.26360795930333
O         7.61309458798925    2.42879053535438    2.28524658785847
C         8.15515217633844    2.69854719591990    3.55117502889170
H         9.22450597299546    2.82983763745495    3.39132665087940
H         7.99444695037716    1.86694576462290    4.24659638588739
H         7.74000846264535    3.61595764750245    3.98314062645668
C         0.29315415104174    2.22608000496421   -0.75499112579577
N        -0.59584237384218    1.39409406658920    1.28708124472388
C        -3.21193497992607    1.50795209065795    0.34316829632467
H        -4.22735607493376    1.54908251700022   -0.02460028808079
C         3.53363816451856    1.79340396353394    1.76842242323917
C         1.70560555271924    1.48729198460098    3.74863195922893
H         0.81650414260037    1.92630411509933    4.20409801775055
C         5.37806048554440    2.26070592509210    3.25141414321043
H         5.73003093069200    2.45421032930013    4.25317007582475
O         6.71642337047465    1.97185955962969   -0.10237908003029
C         3.02606405625169    2.08850493246143    4.18581832603208
H         3.40782074631245    1.54041784982298    5.05347977499960
H         2.87855275532723    3.12717839354431    4.49495018903809
C         4.02035686496032    2.03886787692549    3.04765203996926
C         6.28387923243280    1.74660808341278   -1.41989652679650
H         7.18053529293264    1.79907253379536   -2.03604418633709
H         5.57284353997033    2.51207072978216   -1.74776628598205
H         5.82554907955967    0.75797862240745   -1.53089875611009
C         1.64695634057462    0.18169424890458    3.25601536710719
H         0.72983082193914   -0.39376065023646    3.34290955103913
H         2.55778752224566   -0.41137093534561    3.22480408307153
C        -2.15621718988858    1.90250285799643   -0.50301844065099
C         4.42110009714222    1.76486768321599    0.69788437569825
H         4.03104153172955    1.58742292903142   -0.29209108590569
C         6.26437029780938    2.23152482076914    2.18825609357984
C        -0.84036453318998    1.82940729275452    0.02970893366591
C        -1.24293350881245    2.73228260004229   -2.56380978412458
H        -1.38377625831559    3.08552790577514   -3.57533966014140
C        -2.33546615098341    2.36028449488120   -1.81827458615186
H        -3.33380151445353    2.41639616168092   -2.22452163659683
C        -1.60614046096896    1.03920452378054    2.04903795508992
H        -1.37464327744098    0.70224732365622    3.05102528140969
C         5.77669191865281    1.98023375834630    0.88835718138947
C         0.04993202833448    2.67187099814352   -2.05229358342623
H         0.89179787099303    2.97477225662712   -2.65565783768862
C        -2.93687298028862    1.08259424298967    1.61594916503357
H        -3.72326570532054    0.77824166572344    2.28915241547693

