51
CSD_code = GADFUO | q = 0 | S = 0 | Stoichiometry = C26H20N2S2Zn | MND = 4
Zn        1.84185260861600    6.58530743983127    5.35655743987121
S        -0.12932300488993    7.29667024928872    4.31714951923284
C        -0.30175947895634    5.87033228376304    3.34899645556017
C        -1.49818036854705    5.71525672761996    2.64297477463648
H        -2.25347010924940    6.47601561514517    2.76453684793316
C        -1.71082084444242    4.63302701705413    1.82144568007567
H        -2.64466142623133    4.53502876188230    1.28849869274821
C        -0.72736766477722    3.65820622979266    1.68805823039942
H        -0.89479515901072    2.79530924094981    1.06139325780807
C         0.45941961348554    3.79020930269607    2.37263180074073
H         1.20728988670779    3.01250925066363    2.30465443675686
C         0.70179285891093    4.88895325461305    3.20540120111442
N         1.85595311281501    4.96162959207554    3.96669720059430
C         2.97637182787473    4.47423240153956    3.57023902305374
H         3.10326705225594    4.11193461303912    2.54790153534211
C         4.12695437423432    4.40521950359975    4.44251310230235
C         5.41440991193138    4.52576704583750    3.91404223467984
H         5.54082056923593    4.66185967276392    2.84990351148428
C         6.51241807174630    4.52093897355114    4.75051935550614
H         7.50245969471629    4.64236888599262    4.33724283139913
C         6.34738847410291    4.36420383463871    6.11807580984347
H         7.20751299353895    4.36422184923040    6.77035861172660
C         5.07795876151473    4.20037285755751    6.64884047806925
H         4.94942311102574    4.06249982319207    7.71228146004286
C         3.97367997309918    4.22572214202708    5.82034810837959
H         2.98626026699963    4.06733620031477    6.22990131531272
S         3.90397593503025    7.61738647272035    5.74698849097623
C         3.99874275182840    7.11895460328657    7.40310597800572
C         5.20870942973072    7.33422040419651    8.06916211595269
H         6.01901666179507    7.77102755659561    7.50648956101104
C         5.36692415820082    7.00141132145549    9.39399997233301
H         6.31271332054868    7.17491924096301    9.88498364951040
C         4.31189366308836    6.42884199379552   10.09715993429078
H         4.43474524996770    6.14565889950866   11.13159544780000
C         3.11018165736554    6.20972215772465    9.46284539397307
H         2.30323335375001    5.72558195899231    9.99501743004010
C         2.92332017228978    6.55036703245860    8.11800002993554
N         1.74548165286681    6.23458050294328    7.46234448929637
C         0.60725329955351    6.21794063185101    8.05764733162843
H         0.49913772930065    6.59694666019348    9.07611990448090
C        -0.58681785403260    5.72864250443156    7.40693033907307
C        -1.83146142929100    6.27546869789859    7.72908277709253
H        -1.89154134410545    7.05612567012220    8.47335408798506
C        -2.96770459289556    5.85599127877196    7.06721601586368
H        -3.92197102079667    6.30269486835676    7.30295874181350
C        -2.88641426547119    4.86643145619666    6.09949258133531
H        -3.77612283961464    4.54298442960566    5.58073201082429
C        -1.66373783828507    4.28611151156446    5.80244548063479
H        -1.60135501861947    3.50429068294678    5.05991306684775
C        -0.52000848086179    4.71546262233722    6.44607169462881
H         0.42825054194819    4.24110407241763    6.23718056005419

