47
CSD_code = GADJEB | q = 0 | S = 0 | Stoichiometry = C18H17N4O3ReS4 | MND = 6
Re        9.59937283400370    1.95498693500030   10.46058759716617
S         8.54647027831981    4.16274064652412   10.43119331309040
S         8.68022156463053    5.93696863408388   12.77869071031066
S         8.36030749153733    0.72858324685077    8.76971090190803
S         8.86477288013318   -1.90323019193714    7.64889541449479
O         8.69575765363578    1.49198104796402   11.76493318391355
O        10.92838485650647    2.15131728864353    9.11684571944766
O        13.90150276578582    0.02047739896811   12.89742447127184
H        14.70536766111247   -0.00044500744582   13.43220196950115
N        11.05070212497380    3.20618518412056   11.47312293786850
N        10.53857250458456    4.18142627743376   12.24094833647695
N        10.67448411466156   -0.06455736756414   10.51797717419185
N        10.37095095729116   -0.92617509377639    9.54673996744656
C        12.21923291215043    1.99237707741013    9.15277118693715
C        12.90201910607822    1.41261377380616    8.07005753860026
H        12.32532597032936    1.13633284376773    7.19971371284324
C        14.25157348803715    1.16213041028168    8.14250909873842
H        14.74972533270226    0.67979518063594    7.31506376074873
C        14.98240087149252    1.52557608411667    9.27216550522719
H        16.04180543761269    1.32534705293886    9.31349830803334
C        14.35348106613668    2.15233294470418   10.32162240374773
H        14.91274346015972    2.45825892880974   11.19380971513806
C        12.97329073874118    2.38336478434419   10.30182226602954
C        12.33716213556482    3.14877903901098   11.32916231769423
H        12.95038546944495    3.81336047812477   11.93415353439945
C         9.38986187052400    4.65037408473860   11.87190808070727
C         9.88434560584791    6.09740231709693   14.13013639879457
H        10.84393652154820    6.39093322710489   13.71907578525855
H         9.96558528124092    5.14429030898052   14.64093729284020
H         9.50051832550264    6.86211570966930   14.79660431914054
C        14.03901731684212   -0.80325664563760   11.82929512780241
C        15.21822742278403   -1.49643691014584   11.59892875435277
H        16.04242650358094   -1.38578260467443   12.29182491923358
C        15.34645640108713   -2.31969075754821   10.49470007214524
H        16.27158616077747   -2.85085105764556   10.32989876873262
C        14.29152923002781   -2.45752220365420    9.60638295856982
H        14.39281812776523   -3.09663399636219    8.74288690017635
C        13.11222464268868   -1.77710012942014    9.82677515140220
H        12.28685970779963   -1.87023154859358    9.14200216034316
C        12.95467177999067   -0.94080079028919   10.93515496066163
C        11.78208285389756   -0.14066223983107   11.17857558475061
H        11.83480155981111    0.51691535353546   12.03618674957987
C         9.34268120143102   -0.69087719790244    8.79532874182897
C         9.99267452857625   -3.27591980283457    8.04220846017338
H        10.06600833756086   -3.37164364706275    9.11934267059322
H        10.96667686026518   -3.08368042026483    7.60398008635678
H         9.55509608484931   -4.16586864610328    7.60274501132241

