85
CSD_code = GADKUT | q = 0 | S = 0 | Stoichiometry = C34H43Cl2N3O2Pd | MND = 4
Pd        7.49122789271168    6.36960512262210    3.59773290038892
O        14.45213383017203    5.81356736156366    7.09475260943657
O        13.24409894648821    7.30987348300410    8.79639584977966
N        10.26794540772747    5.77981194927769    4.43307895553459
N         9.24031956147222    7.07835738424242    5.87730102211899
N         5.85281324032366    6.34073714686351    2.45755950193725
C        11.17756234719679    6.05271685697974    5.44281610588912
C        10.52260706877948    6.87587739473944    6.36387113983230
C         9.10305825012315    6.40842687477581    4.71035565786573
C        12.50540253929853    5.67274888368458    5.65330201068503
H        13.03199180634264    5.04533625145818    4.95857386198134
C        13.16237967653622    6.11409277956863    6.78227974730220
C        12.49543728959315    6.94274079857072    7.72117978558375
C        11.18583325363619    7.31967469733365    7.51076091083712
H        10.70392104196393    7.94796325417726    8.23652409253918
C        15.18796076483551    5.00652243174694    6.21096603739786
H        16.17635532640092    4.91057710200577    6.65708405186217
H        15.28344290276422    5.47029133303342    5.22298527895616
H        14.74356445224329    4.01062268174155    6.10568154127263
C        12.65810345140795    8.12687734389174    9.77757691461723
H        13.43147818301742    8.28264774803218   10.52778209220052
H        11.79532948999708    7.64129903065675   10.24678450916669
H        12.35395752124640    9.09681592559409    9.36884250772856
C         4.78471710043863    7.06379247313301    2.78383433800770
H         4.84951928879137    7.64294717350350    3.70160085800793
C         3.64031833501583    7.09134357643556    2.00566456223318
H         2.79714517391924    7.69273327775607    2.30728885374722
C         3.60190953358627    6.33872534558826    0.84244026803898
H         2.72532402614671    6.33888077855725    0.21243156956773
C         4.71641921713285    5.58581443688542    0.50771068740286
H         4.73313606390597    4.98392947545610   -0.38729121462016
C         5.81990435416571    5.61529088105159    1.34266173058119
H         6.71011332338632    5.03541561561887    1.11183114459433
C        10.60913132634131    4.92279357514581    3.27910365270928
C        10.97018228844411    3.52413421815828    3.80415707242463
H        11.73336749661085    3.56888837595453    4.57714691858718
H        10.07625778226204    3.08862712313399    4.25781957659106
C        11.45597453623014    2.64597417514873    2.65196956546221
H        11.76038077391540    1.67181326211438    3.05032461719559
C        12.64882058239826    3.30851178558325    1.96149521588942
H        13.46578314613777    3.44365000734739    2.67490700240555
H        13.01407875538129    2.66330336443712    1.15977744438412
C        12.23053373859884    4.66103305264286    1.38330746730049
H        13.08626203448325    5.12166557362585    0.87750238578032
C        11.76280199283923    5.58330078335722    2.50818723938289
H        11.40016718957680    6.52779040009827    2.09463778202452
H        12.59990021024605    5.81874046948656    3.16092608473010
C         9.46137921379402    4.73106145414027    2.27376734669666
H         9.17335369025468    5.70761076732133    1.85134534834296
H         8.60894213639948    4.24605594137440    2.77584471107414
C         9.91155642838399    3.82894699791743    1.11789542661532
H         9.07414394722245    3.71169693269862    0.42047984299105
C        11.09109932566537    4.46545932721864    0.38795973177150
H        11.41396832640464    3.82317299745075   -0.43405434730242
H        10.79698889516970    5.42909105818286   -0.03274651346239
C        10.31998942229245    2.45863616001128    1.65127300894401
H         9.47079311287902    1.97717470893450    2.14030127136256
H        10.64317111189164    1.81736060752257    0.82859353786706
C         8.25023418152709    7.91060466009259    6.59155484447858
C         7.98192516784592    7.27375911780543    7.96408014239969
H         8.90441461787562    7.09809432928388    8.51232489312649
H         7.51108985763736    6.30068536252571    7.80292646534642
C         7.05983009073532    8.17542761704621    8.78350647044020
H         6.92031751896360    7.73405281576891    9.77648345440935
C         7.68523540086045    9.56353509190129    8.92685195128012
H         8.65110002596353    9.48778042294560    9.43277560266325
H         7.03987325398955   10.19569368714191    9.54031970196599
C         7.86581959242496   10.19817298024591    7.54727381810950
H         8.30117721995966   11.19722577011434    7.65986850500613
C         8.80444094679770    9.33999890233470    6.70013377013104
H         8.88417065919207    9.75298764189687    5.69135008611029
H         9.80190621254847    9.35319002697674    7.13237676811429
C         6.88994432179622    8.02086113305332    5.88272037219152
H         6.43766652156131    7.02008485697918    5.79134913631851
H         7.02731912847001    8.48910511293391    4.89452929170895
C         5.93409884024740    8.90018040929804    6.69836510485732
H         4.97602133210015    8.95791817740690    6.16906488400616
C         6.51404982476451   10.30378388748628    6.84827843530351
H         5.83520215819924   10.92970435581111    7.43125751396003
H         6.63921781573068   10.76566785245303    5.86688226535074
C         5.71163583664404    8.28819208012506    8.07863066730038
H         5.25973085469994    7.29896704752641    7.98228602592222
H         5.03217476453562    8.91393513296037    8.66109239845126
Cl        6.73019942533208    4.50988198090654    4.74620191953962
Cl        8.24784630519447    8.22925955830060    2.44403423923891

