23
CSD_code = GADNOP | q = 0 | S = 0 | Stoichiometry = C6H10O2PdS4 | MND = 4
Pd        3.74787208955610   -0.00001878505276   10.37611095559308
S         2.91838686839561    2.08265983115260   11.01341571691919
S         4.58968906920399    0.28232138021826   12.53886607063858
O         3.80107269527844    2.56372850345947   13.47578950306791
C         3.75991694735661    1.75200580173869   12.44762663365351
C         3.10123492622594    3.80677566360909   13.39655723698247
H         2.03908804708760    3.60438132113561   13.21460731846213
H         3.49195609693106    4.37926734105155   12.54694937239641
C         3.30826072764121    4.54591508304241   14.70471166702553
H         2.78949673305408    5.49903693680867   14.66928363542722
H         4.36738174600493    4.72151456739302   14.87052040375371
H         2.91965070783107    3.95810322062259   15.53145289193730
S         4.57743292908012   -2.08265035336845    9.73877533143993
C         3.73587522106032   -1.75200957058292    8.30457802500455
S         2.90613055266853   -0.28230976052789    8.21332455141715
O         3.69472252024360   -2.56373037500869    7.27641293023616
C         4.39456479457591   -3.80677514167179    7.35564292432811
H         5.45671149160557   -3.60437829739313    7.53759178573875
H         4.00384600872457   -4.37926822594177    8.20525084891582
C         4.18753923761045   -4.54591478756854    6.04748850030971
H         4.70630115890660   -5.49903771150178    6.08291780614365
H         3.12841806030309   -4.72151223264076    5.88167867955623
H         4.57615137065459   -3.95810440897351    5.22074721105292

