75
CSD_code = GADROS | q = 0 | S = 0 | Stoichiometry = C35H35N4V | MND = 9
V         2.77707493272602   10.34840787152679    0.92005674512404
N         2.58857139834289   12.25268186747515    1.36123870060720
N         0.89393173597239   10.90496652698324    1.03383870465261
N         4.01554836529347   10.20483409412707    2.52482153942374
N         2.31296049862479    8.86643734684836    2.22652907643730
C         1.43257275684671   11.81805707969224    1.80695585289637
C         3.03599560247162    9.54263744643315    3.07992591943332
C         4.50181236371875   10.34954374283366   -0.44651937265207
C         3.48228412620157   11.04164556418826   -1.11791665123761
C         2.40421064196093   10.15677701851617   -1.31202178355102
C         2.75189261899820    8.91495333662754   -0.75984738504831
C         4.04496178256901    9.03440393287844   -0.20308059538483
C         3.30914454892446   13.29204228837273    1.90096175354558
C         2.78302210148254   14.21056152363818    2.81857428398619
C         3.56572022343994   15.23254738398133    3.31433863399112
C         4.88645475807629   15.39329079704751    2.91388434451960
C         5.39538257873808   14.50789216109662    1.97174753975829
C         4.62538977273097   13.48261766721429    1.46725033527882
C         5.72396956298880   16.49573790588018    3.48714769291892
C        -0.36628520140620   10.37691162235672    1.18812446637220
C        -1.36102912217451   10.96357825008864    1.97922139982625
C        -2.60937325783424   10.38260450616306    2.08267262499279
C        -2.92174699395714    9.21472483409144    1.40123018911965
C        -1.94659509725498    8.65465924542322    0.58224376716520
C        -0.69791796949724    9.22301514563343    0.46855072254431
C        -4.28033677594998    8.59212888822250    1.51162225181356
C         4.88426391049787   11.00832596704889    3.24219660417946
C         6.21789325953888   11.09121383150806    2.83255607787587
C         7.10572885539481   11.91147892728132    3.49338666067990
C         6.70235833354908   12.67777853235861    4.58249437215835
C         5.38264987939064   12.58357827579485    5.00002914690049
C         4.48390330747725   11.76194348613748    4.34848599784633
C         7.67722062208199   13.58299547535917    5.27208553593508
C         1.20166410597042    8.13234488238256    2.60279296448541
C         0.32456633438365    8.55085038193301    3.60800980445909
C        -0.79844283806760    7.80898899083698    3.91147897494609
C        -1.08365378629675    6.62851326814194    3.23735250806901
C        -0.20023076164636    6.20176727166602    2.25295655054014
C         0.92285981585946    6.93692640731882    1.93695398686298
C        -2.30384852902944    5.82921278730909    3.58011806340463
H         0.98654332642890   12.14500225825617    2.76058635706857
H         2.88911594639274    9.48404408375579    4.17209363389505
H         5.50353572622351   10.71085210484756   -0.26518547373321
H         3.54001926394895   12.05242017784357   -1.49853858407470
H         1.50115537886503   10.38068776165242   -1.86335025170217
H         2.19029637916539    7.99676936966350   -0.85312775853652
H         4.64643023992286    8.21730396275095    0.17596193778227
H         1.75417358027475   14.13300556306960    3.14105679137637
H         3.14068847502413   15.92395821799520    4.02907177026740
H         6.41342201839430   14.62469767718551    1.62776779259919
H         5.02666378156647   12.80087563330282    0.73402526092811
H        -1.16398927720845   11.88429221496117    2.51029487099892
H        -3.35741153224155   10.85085571813843    2.70784614213166
H        -2.17478129682020    7.75557763883061    0.02754884243966
H         0.05309951638696    8.78293396062073   -0.16835701194469
H         6.53670542935623   10.49532096187789    1.99010720982375
H         8.13326450073496   11.96563599963017    3.16177752489850
H         5.04623609996590   13.16950901315070    5.84407475509572
H         3.45377637038337   11.72654573219368    4.68071776778668
H         0.51001371371774    9.48114068664303    4.13089068414606
H        -1.47388878237449    8.15896192863486    4.67953751832493
H        -0.40063703193855    5.28051204214114    1.72392019089260
H         1.60617319851144    6.60089286511323    1.17100281897510
H         6.68572747329524   16.55426349864488    2.98374949781586
H         5.89933787087542   16.32238770412172    4.54875808267146
H         5.21866788370813   17.45542209609757    3.38638839330779
H        -4.76604842779901    8.87952342749428    2.44148035518937
H        -4.20980363340428    7.50753597817167    1.46869496807011
H        -4.91276883106629    8.92011369904178    0.68534576758851
H         8.54209083223378   13.01944991062519    5.62041905096940
H         7.21668911528492   14.07433146479683    6.12550855632281
H         8.03423079494070   14.34702958233204    4.58251121274802
H        -2.08802439049277    5.14804360486680    4.40447695170884
H        -2.62923976205146    5.23428395734096    2.72989195963756
H        -3.11721241147194    6.48194297185620    3.88870440957210

