48
CSD_code = GADTAG | q = 0 | S = 0 | Stoichiometry = C19H21MoO2PS4 | MND = 7
Mo        3.50992783657835    6.41953463405379    1.66963894220689
S         2.96762268753618    8.53220529437653    0.30733104134078
S         1.84400763609997    7.46908656105751    3.19811094615449
S         5.05732297644535    8.10497446503467    2.55421935377334
S         4.20353215449403    5.17003171045826    3.75362135165332
P         3.01336896025792    5.84391291557012   -0.59729271026743
C         1.57080174684033    9.23082068353885    1.07632133096428
C         0.92121870468845   10.29087862981282    0.43447457917850
C        -0.17181168662917   10.89904203311439    1.01073619928725
C        -0.65272105937940   10.46809055713395    2.24155701218028
C        -0.02374568863326    9.42264772110113    2.88785184999641
C         1.08559234166777    8.81831941049687    2.31519206277378
C         2.93490501774654    8.40606131505245    4.33288940383609
C         4.01143780066205    9.17755795360502    3.60786393780305
C         6.01200487912427    7.26324861564329    3.79829032566110
C         7.14597202815654    7.90277465676725    4.27555122048057
C         7.93370271889251    7.29298345544332    5.23146250363845
C         7.58301838800030    6.03150753212247    5.69892717310498
C         6.46108044306563    5.39313062153066    5.22030069133170
C         5.64905740986798    5.99331729227788    4.25010730189388
C         5.08809444214228    5.59469268174071    0.91886126550171
O         6.06592600747449    5.13436385164165    0.53604281164823
C         2.18308551992426    5.01257154819532    1.59817995677635
O         1.33094538592175    4.24425189944575    1.62995297218297
C         3.19519636707443    4.07405306733029   -0.99967442509147
C         4.06834940481500    6.54929675642229   -1.90942286514347
C         1.33061786574295    6.15975306916574   -1.22475181720305
H         1.30142250295787   10.61796743189898   -0.52115698032817
H        -0.66053848934689   11.71344461700494    0.49718425318657
H        -1.51311779849326   10.94126111255259    2.68840957034836
H        -0.38251896689450    9.06143573497406    3.84050016702977
H         3.36134000435473    7.64688102893695    4.99529849568894
H         2.29337162318736    9.07816759770454    4.90646783881168
H         3.58232250813822    9.91939150767464    2.92872195338121
H         4.68109300411560    9.67051763511629    4.31468120814018
H         7.40047265123506    8.87802021754098    3.88560682015267
H         8.81605036560238    7.78991849148881    5.60367668160798
H         8.19755336105540    5.54379608017830    6.44094557570320
H         6.18237925602230    4.41377994874858    5.57740325446767
H         4.18208669334790    3.73052223201627   -0.69005704559660
H         3.08430193966609    3.93931433526253   -2.07728641794921
H         2.43714001347687    3.48742412066802   -0.48289745889025
H         5.08053248247654    6.16584112406846   -1.77388600453251
H         4.08226106442528    7.63603559141106   -1.84103344818340
H         3.68567307691882    6.24377236010104   -2.88451531904153
H         0.61165955019705    5.68023248257407   -0.55849450602347
H         1.23753043387458    5.74344855841988   -2.22902600878849
H         1.14257443510585    7.23281885952076   -1.25128504484463

