48
CSD_code = GAFBIY | q = 0 | S = 0 | Stoichiometry = C24H17MoN3O2S | MND = 8
Mo       -0.00033015401898    4.56922799472447   10.86570850824204
N        -0.23636694468605    6.18572279276007    9.65589800967093
C        -0.92473767438074    6.76786873349561    8.89235602977424
S        -1.84451675490155    7.56620498050463    7.88672921514578
N        -0.92187528250539    3.59462531685832    9.25363992262437
N        -2.04560593057445    5.06427298006992   11.13739945514234
C        -2.25653828854208    3.80216445665955    9.15467570986696
C        -0.33645919907733    2.94693585549581    8.25443600274420
C        -1.02408606491439    2.43802659990160    7.15865182272911
C        -2.39062315048345    2.60879692359934    7.06764130380168
C        -3.04107636365517    3.32434847562547    8.08099680404736
C        -4.43600280896502    3.61711909525324    8.06322755871286
C        -5.00727258090481    4.37985663067934    9.02564407474781
C        -4.23361528419293    4.91628167736208   10.09457182505153
C        -4.75068320283966    5.77320825614312   11.07353897546702
C        -3.89564124528710    6.28548611058258   12.02489566464208
C        -2.55516317527650    5.90753533951177   12.01651763364345
C        -2.85776271895452    4.59853571525670   10.16646991960362
C        -0.45068410502166    3.35529989116472   12.91149354634666
C        -0.22462102457100    2.53755430001034   11.79224751372550
C         1.08895569221028    2.54183075073216   11.25986939257191
C        -1.74158956846886    3.49806566461575   13.56907316127973
C        -1.81587443888224    4.21854247771836   14.76706739608942
C        -3.02312676306038    4.43196413053306   15.40106908150594
C        -4.19416012228264    3.92715301022844   14.85879398444903
C        -4.14011246354309    3.19667294383109   13.68303395763830
C        -2.93393151043360    2.98263278259988   13.04596868964593
C         1.84792911163557    4.42278992045099   10.27515634077727
C         0.73853852922932    5.65977746779124   12.29247339290301
O         2.94701357682267    4.35580076814979    9.94513082313039
O         1.18716226662982    6.27450963130099   13.15332162987589
H         0.39974886145681    3.52866841875422   13.57064104226493
H        -0.98381842642887    1.86679829729114   11.39404510126597
H         1.29449198455529    1.83039041766660   10.46341127117262
H         1.90844862901474    2.61760509981890   11.97262135702343
H         0.73748472226338    2.83235867556007    8.32269067350796
H        -0.47901241277324    1.91934140264752    6.38589566992118
H        -2.95156726162074    2.22536001466932    6.22927544167310
H        -5.02213003004415    3.23076439491713    7.24257833632484
H        -6.05992324428219    4.61809804032016    8.99141481118757
H        -5.79719448487277    6.03833081059751   11.05810281209447
H        -4.24843856468902    6.97189563657653   12.77747536831371
H        -1.87166140250179    6.30019459829598   12.75768281597947
H        -0.90734279378578    4.62206102624741   15.19173025422726
H        -3.05387220990605    4.99524209890146   16.32209466889692
H        -5.14020519801810    4.09584656331438   15.35064006193323
H        -5.04723387901253    2.79126121197461   13.25760496641656
H        -2.92771664546360    2.40817161884525   12.12919800218003

