54
CSD_code = GAFBAS | q = 1 | S = 0 | Stoichiometry = C20H27N4RuS2(1+) | MND = 9
Ru        7.13625039554489    9.84261297455290    4.20245270406616
S         8.66282639391214    9.50627972053484    2.29869757525217
N         9.40544341691578    6.91712520804918    2.60430813329438
H         9.20153011881708    6.00617252361544    2.99449528071077
C         5.87443599628446   11.03146858199088    5.72169490044340
S         9.07289749248133   10.08970659571633    5.64786697465390
N         7.76297909195310    7.89350906865821    3.99160099220322
C         5.20711614684960    9.82059975461761    5.44358835295948
H         4.87013266500072    9.19445623619105    6.26223614040411
N        10.18097124808568    7.61922701468394    5.45283264978595
H        11.03997226214448    7.08286205305646    5.50662883444618
C         4.90001824531297    9.46153591356633    4.11055242444773
H         4.32556403705117    8.56117664555021    3.92679120079736
N        11.56838045107727    9.43093113744371    5.31608127067952
H        12.34651000682234    8.78590336431639    5.33916574801545
C         5.24759289347924   10.29821438934045    3.02793429768508
C         5.91940382182103   11.51888484234420    3.31962519888379
H         6.14685336772781   12.20214445452581    2.50740737550759
C         6.21995266828623   11.88646640796910    4.63738051838439
H         6.66725446775615   12.85245155343888    4.84529330222832
C         6.14051025229586   11.46567222006935    7.12878057449926
H         5.42268680487726   12.23720359225268    7.41095892939468
H         7.14026041661789   11.88856648482416    7.22027725443608
H         6.04590919420686   10.63410230341717    7.82332049424091
C         4.83439316496994    9.97603537703315    1.61202881100895
H         5.42427112649667   10.60445964428065    0.93550377914920
C         3.35287453674670   10.32537626354763    1.43256874143498
H         3.17522042331587   11.37556540240580    1.65277135980437
H         2.73288130971603    9.72415652085700    2.09413313205778
H         3.05049809520549   10.13255687559505    0.40701989728403
C         5.10062093079406    8.51329093807313    1.25161133566061
H         6.12262935563585    8.23986517502513    1.51552727856966
H         4.97221406166224    8.36963041383758    0.18243161284098
H         4.41343956748418    7.84485784349267    1.76461899611763
C        10.19155110460943    6.94744790473991    1.39368210542367
H         9.67630514256767    6.44436469495602    0.57233670158012
H        11.14726024154454    6.45427216327032    1.56852981358358
H        10.36343505854881    7.98651412454790    1.11834211761773
C         8.62796134815592    7.93563749678567    2.99906345576611
C         7.83317726955116    6.99892854607852    5.06056375219138
C         6.71403426740760    6.26646237884315    5.45034461093283
H         5.80413890988843    6.37684070529935    4.88094545600841
C         6.77942031374447    5.40358000713070    6.52733314190786
H         5.90769547293162    4.83709007171342    6.81416671677013
C         7.96476451147414    5.25660011571197    7.23011767160862
H         8.02183293176430    4.57610841389151    8.06431623623506
C         9.07961960753208    5.99185978725134    6.86803452546035
H        10.00103143605408    5.89079171565521    7.42228671951153
C         9.01960910451891    6.87563532700221    5.80008735091583
C        10.32790603446599    8.96154773854912    5.43339919799857
C        11.89131491631218   10.83212756721703    5.19431251482150
H        12.87128191503175   10.93210373270703    4.73617680442794
H        11.89577453018470   11.31970031301043    6.17075648503731
H        11.14209145636260   11.32081970076679    4.57071855084775

