43
CSD_code = GAFBAQ | q = 1 | S = 0 | Stoichiometry = C15H25N2Pd(1+) | MND = 5
Pd        4.57324121021817   12.30407794120879    2.31021350116287
C         4.04573387937535   10.40727147357520    1.54619371470143
C         2.90756174278113   11.25543501253459    1.55678675023752
C         3.00189694093432   12.48713770462581    0.90680680870949
C         4.13903560197097    9.31089226057707    2.51006468528912
C         4.62934846328053    8.05482731245204    2.15201905924555
C         4.68984600694924    7.03783049133689    3.08734507241899
C         4.28049097257978    7.26322264401067    4.39171634916504
C         3.81720974710335    8.51606129335385    4.76745670035358
C         3.74688390174287    9.53371007327918    3.83722010131266
N         4.91595890904471   14.34899810842814    2.93827281210173
N         6.50138215276790   11.96468141116966    3.28642735287054
C         6.32353764545817   14.45367132089113    3.35035638175131
C         6.80660583712900   13.18333806128991    4.05412404784668
C         4.62228518997075   15.37270234122274    1.93065767193333
C         4.01343533672470   14.51131060044737    4.08451012391578
C         7.35002853113831   11.87079496563493    2.08780209184819
C         6.74795040561951   10.79868709656780    4.13623503939305
H         4.60334895744644   10.29747669174586    0.60951621515485
H         2.07761488466820   11.04932456086144    2.23017920002430
H         2.17521451716891   13.18674217980318    0.98514370503658
H         3.60426681165628   12.57381713394511   -0.00454631035053
H         4.94107936749847    7.87402381950348    1.13352063504854
H         5.05889347106122    6.06613600345451    2.79797661015965
H         4.32688025320944    6.46651182415715    5.11719920955649
H         3.51060438249032    8.69289837820901    5.78722596557641
H         3.41134195234459   10.53101879627230    4.13640420459191
H         6.92908265236362   14.62959812477264    2.45701162630362
H         6.46653369070424   15.31137507668002    4.02303584307135
H         7.88957270419421   13.26421208486039    4.22860873709092
H         6.32008619471439   13.09613372678835    5.02956805222683
H         5.20779678114207   15.18725712758429    1.02740222886390
H         4.86337002647050   16.37372872682464    2.30811036091333
H         3.56374197782321   15.34797739184472    1.67216163840840
H         4.18411139203444   13.72064727265267    4.82087972534895
H         2.97610137866924   14.45142893641107    3.74472420479986
H         4.16471546326675   15.48327009409856    4.57095071972737
H         7.10636840944874   12.66523578434010    1.37221845265747
H         7.18694769751459   10.90390901122245    1.60604428706692
H         8.41244420823347   11.94863876090582    2.35211999468274
H         6.08483188134379   10.81854254028064    5.00121615595049
H         7.78616136088482   10.78672139165461    4.48828914023955
H         6.55835710893913    9.88192444847062    3.57933113367734

