87
CSD_code = GAFHUT | q = 0 | S = 0 | Stoichiometry = C36H38N4NiO8 | MND = 6
N        11.10121492308574   12.65086922576367    9.69060732628288
O        12.22850931367453   12.66519042292248    9.21597207481981
O        10.09218552111940   12.58432945994649    9.01658672690500
O         5.25174074528216   11.70538227715230   12.12755034503179
N         2.85456825600221   12.45062716696672   13.39096783030732
O         3.85372607216948   12.66555770919450   14.04917741372074
O         1.73185431133946   12.38734160964133   13.87270744639267
O         8.80976919002151   11.84575859496705   11.11101574484755
C         4.22968179875374   11.89061006628730   11.41412350441435
C         2.97092082260729   12.26139047965302   11.98523825178031
C         1.83510964817928   12.44785749649141   11.21211487476597
C         1.84530500618136   12.29227838661926    9.83238806747289
C         3.04616684816497   11.90600772415117    9.25371761606400
C         4.21193328041065   11.69553250319820    9.98899783739040
C         5.39257883187417   11.25604607136850    9.32049592147587
N         6.54946171601619   11.03783109567314    9.85173980929993
C         7.58712194349423   10.57152163481877    9.02758580007049
C         7.80789852899335   11.05129991480768    7.74364136527690
C         8.86074277467794   10.56731677467518    6.98841068350580
C         9.70072272631646    9.60439108676631    7.51318436969892
C         9.50308046590475    9.11860314486488    8.79743347771260
C         8.45423045051152    9.59866785897707    9.56277014945448
O         8.15270804277953    9.19688895250253   10.83481421002014
C         9.08670330138524    8.38984917587394   11.51530072355227
C         0.62066493390110   12.52909909767333    8.96295613548145
C         0.27324198101772   11.23252088941948    8.21826418172097
C        -0.59947894648619   12.95482790905172    9.78286291007341
C         0.93423193194138   13.64178758759997    7.95281777964575
C         9.78666426202239   12.30594888267996   11.76027677143086
C        10.99179427877270   12.72409472240744   11.10813674016236
C        12.07638881923065   13.20932321560774   11.81685691676109
C        12.06995227057286   13.33206609718647   13.20327142343712
C        10.92724309095026   12.91329415496840   13.86318972035382
C         9.81116474368243   12.40362425815844   13.19401625300001
C         8.69139876006115   11.95031189286088   13.95094622124703
N         7.58275747442683   11.47380324964143   13.48870962981055
C         6.60649468012221   11.04339445917827   14.40267362758834
C         6.30471315985290   11.73303126334884   15.56923828093992
C         5.31775762951238   11.26901684341648   16.41995143351759
C         4.62423073426730   10.11583788744290   16.10799616535064
C         4.90334228924989    9.41746168232491   14.94233949493671
C         5.88690926137359    9.87524766723693   14.08253767833646
O         6.25622484505369    9.27497632015318   12.91019737533358
C         5.44995654976097    8.22938544044107   12.41712506222387
C        13.28597884531726   13.91237348090435   13.90685007739655
C        14.50552605120543   13.02912614476513   13.60975697912381
C        13.53185558838340   15.33296493633117   13.37967084845355
C        13.10223678392844   13.98805336589369   15.42471473688146
Ni        7.06348422834744   11.29822802979292   11.66673520825275
H        12.93729068744609   13.50655130234154   11.23660340966032
H        10.86751654723545   12.97769096000811   14.93845220950668
H         5.85859411223099    7.97690337716916   11.44042422708948
H         4.40869976930181    8.54674032281408   12.30405587220345
H         5.49566981635456    7.35132434590846   13.07078460579836
H         4.33256677158211    8.53270112246842   14.70829120648381
H         3.84096191665419    9.76078115036566   16.75998605594269
H         5.07503331976384   11.82365181159700   17.31223102563623
H        13.99655825825909   14.41266251651085   15.87542283272103
H        12.26088298532020   14.62577257321871   15.68585368937257
H        12.94972614885184   12.99946435182787   15.85184768361211
H        15.38574402047291   13.42829976519085   14.10864005967198
H        14.33454954622012   12.01658813991239   13.96951370559026
H        14.71032595671469   12.98238207358325   12.54415997730433
H        14.38538133245351   15.77724812691707   13.88672107663089
H        12.65972252573380   15.95796530227431   13.55984173141862
H        13.73488119732930   15.32985408821582   12.31271068636389
H         5.26805093037090   11.04777241188326    8.25539541600976
H         3.10280372311979   11.76415136934486    8.18396417919961
H        -1.44556583870544   13.11275507347356    9.11742471080331
H        -0.41010063870344   13.88603965761422   10.31102571203999
H        -0.87610388048321   12.18736567235905   10.50148306601837
H         0.06052273290716   13.84512802831305    7.33778994529690
H         1.20914024735666   14.55602955031547    8.47415716968249
H         1.75430086495973   13.36421426838411    7.29632942532206
H        -0.61126778332376   11.38103121476597    7.60300045696756
H         0.06907245878886   10.43447587459412    8.92874067339844
H         1.08665299618933   10.91466727356412    7.57172098671507
H         0.93939639676196   12.73306555379672   11.74092725894436
H         7.18777724506947   11.84584607585780    7.35798841007811
H         9.03783500710065   10.96206753443784    6.00072803165102
H        10.53402768453928    9.23759180915266    6.93374495311907
H        10.18566683629348    8.38372753849633    9.19417425562920
H         8.70181930251854    8.28302479555464   12.52777461339197
H        10.07315768968164    8.86246898132055   11.54969592184691
H         9.17052566120755    7.40172844448491   11.04960623651986
H         6.80549710649540   12.66501503660514   15.78167940187503
H         8.82661758052356   11.97770419356665   15.03447589876935

