42
CSD_code = GAFKOO | q = 0 | S = 0 | Stoichiometry = C14H23Cl2PSiTi | MND = 13
Ti        4.38889265347144    5.15201764432882    2.82208570736865
Si        3.70114450151718    2.70226499304818    2.85430630702853
P         3.21891359134502    6.63546675086308    4.47882782134577
Cl        4.88593318555313    1.68139471379360    1.51476064177813
Cl        4.07988109289992    1.94263691450354    4.74408649221343
C         5.82374473955586    4.73420122408395    4.54643045759105
H         5.57293574412086    4.34589515715887    5.52465361215920
C         6.27107459359272    3.95058018747419    3.45915084321327
H         6.46613904530263    2.89030215720978    3.48929492114334
C         6.64205087322577    4.81862113061854    2.42310912775465
H         7.11096960632886    4.51758555763069    1.49644764037950
C         6.47866057310736    6.14005759369782    2.88109843420559
H         6.80616111584367    7.03376980074434    2.36914901404664
C         5.98867290101435    6.09135814535589    4.19260042234479
H         5.91052044290114    6.93895715807289    4.85964997602828
C         4.37419735012383    6.69797650070488    1.11457492489679
H         5.01131049290480    7.56317184787172    1.00329683398935
C         3.09182069867233    6.71057176871922    1.67755257692814
H         2.57991115125566    7.59368978065618    2.03297491321760
C         2.52310558399732    5.43379050614258    1.49917312403933
H         1.50595669942091    5.14634284905980    1.73650578107019
C         3.44389425474862    4.65179190634444    0.76156225690488
H         3.23491269256141    3.70772566070197    0.28286714871607
C         4.59211695787079    5.42704792522310    0.54874621671615
H         5.42995181656584    5.14271543648934   -0.07185572705694
C         1.91860344641973    2.08206561202929    2.51334769624538
C         3.40705266003371    8.46129254945353    4.69013624280295
H         3.12871293901900    8.97521536559581    3.77199659194010
H         4.44345243365550    8.70202834869945    4.91993059884783
H         2.76703415791922    8.80046664863607    5.50530165125708
C         3.42946564106479    6.09876272749380    6.22232435022722
H         3.23319292606571    5.02678533189906    6.27585289889080
H         4.44051320694748    6.29443775412529    6.57383323717349
H         2.72070442386313    6.63516219661643    6.85542508583285
C         1.38454219982084    6.51285202522014    4.42128295385771
H         0.95918253650536    7.03716652150539    5.27846439336153
H         1.11552076778265    5.45658508328084    4.46838818537487
H         0.98289003557957    6.94135123560376    3.50551128485535
H         3.32595964367531    4.56155882338635    3.78347181695077
H         1.21582160041404    2.49686732112680    3.22946064167061
H         1.57962636287654    2.34718404412538    1.51774384915166
H         1.88025266047311    0.99908510066596    2.60087905351987

