87
CSD_code = GAFYUJ | q = 0 | S = 0 | Stoichiometry = C36H36FeN10O2S2 | MND = 6
Fe        5.45715948145588    4.80561814562802    8.57195819307592
S         8.56257859116429    1.79434452531030    7.80898642911336
S         2.44867121931015    1.84940499205797    9.79985989356387
N         4.68736101900307    4.92432778473135   10.21291501202787
O         1.18033283350066   10.05066404114319    9.78114801586479
N         3.76841108859443    4.04779219727824   10.60963499380649
N         6.85342299135022    3.39928424153672    8.93344037091496
N         4.43888191819220    6.13986083002603    7.60373271046725
N         5.99983458112247    6.70369983569321   10.47526777391170
N         4.11640576988257    3.30745216548629    8.43779995077361
N         7.16561013909593    3.78887564037276    6.66725422987580
C         2.82847630565645    1.38942567045981    8.15375785122733
N         6.21980201531569    4.68838194372826    6.92707890943545
N         4.84603904869164    6.35768086158943    6.39514339832259
N         6.42795352391152    6.30749252953714    9.32028331703625
O         9.62700716280981    9.90973285292897    6.59196217133269
C         8.20625004650792    1.59564491538060    9.51178908844299
C         4.18452881182058    2.10877740006834    6.28855814484594
H         4.89279805864783    2.79738553545742    5.85877317883555
C         7.25927604739028    2.55545358610271    9.92242457384007
C         3.58176851645742    7.09310410081884    8.12764105882678
C         3.53686309788020    3.19882863262888    9.62686823326962
C         8.72653300076664    0.66816261277901   10.39386513690256
H         9.45124951798396   -0.05610181814974   10.05735873387250
C         2.34710792917165    0.31370759031280    7.43253949300421
H         1.64284673404861   -0.36974930922226    7.87965185524595
C         5.07123474504411    5.92271629886613   11.00201075977951
C         2.57656772996929    6.73158897383205    9.02189982028851
H         2.42540816268776    5.69133538741266    9.25955000313171
C         1.91855555078524    9.03135684819592    9.26871752642634
C         9.09435954977085    7.58948204325258    7.13351477746420
H         9.87697607376955    7.18580661089538    6.51053215083847
C         1.75217665219782    7.68521930747851    9.58623319208709
H         0.97933309114893    7.36518712592513   10.26721791703070
C         4.52711040851364    6.18957418999646   12.37569457909482
H         3.66736535678555    5.52667884998044   12.51433058162455
C         3.74803974848097    2.30107675750825    7.59684002335708
C         8.90253289698279    8.96456171303990    7.24642480822185
C         7.35359633892430    1.63474422577673   12.12456138101863
H         7.02541687656292    1.63534951103341   13.15312551247626
C         4.08331508893697    7.64838848834138   12.47966551917314
H         3.34256070468746    7.87633850802156   11.71678310987522
H         4.93852230187064    8.30263284578425   12.33421756066365
H         3.65299838121290    7.84043707094373   13.46000016977522
C         7.26797335004727    7.18766310854552    8.65962258886866
C         5.79479245218925    5.52934313725641    5.99006993613759
C         7.09706190194990    8.57233351811929    8.79237036409906
H         6.31242049396066    8.93397401561625    9.43846611082788
C         3.72559118330924    8.44487912020500    7.78751684802301
H         4.50130847882677    8.72013366110801    7.09007510689132
C         8.28409858225223    6.71559905344724    7.83165056550766
H         8.45540158889507    5.65462015939719    7.75248831656675
C         6.83513685917997    2.56539590795135   11.24856014039240
H         6.10647510100982    3.29273768859781   11.56578891104803
C         7.43057048845791    3.11821374763890    7.77182668810939
C         2.91360004814712    9.39533593114694    8.35587302030509
H         3.02823122446858   10.44036387014048    8.11540010147170
C         3.70526060677099    1.03075841600271    5.57398758281084
H         4.04398361803122    0.87473765086379    4.56078977861405
C         8.29080693208540    0.69485823188282   11.70642362654181
H         8.68184753618212   -0.02218925655239   12.41159629617282
C         7.89507775297136    9.44210022526391    8.09083496174254
H         7.76023426154608   10.50901186454672    8.17198305631183
C         2.79478609619171    0.14057038843736    6.13530734301833
H         2.43433368904229   -0.69455037699783    5.55479921726006
C        10.64627067955020    9.49315565729968    5.71514158380796
H        11.07380226909982   10.40715773447908    5.30620821867336
H        10.24879632506236    8.88277614913814    4.89797638533572
H        11.42614493791413    8.93402650828201    6.24175417530074
C         6.31455585152821    5.58186758103914    4.58259398588280
H         7.16047829202856    4.88978835423823    4.52673080067450
C         5.22444533786302    5.13890167958657    3.60436420589335
H         4.91542949985501    4.11594663275968    3.80579475658949
H         5.59420637282220    5.19268235239808    2.58298088793922
H         4.35747632589570    5.78767173872570    3.70096924737157
C         0.17574970786651    9.75180396884560   10.72076824839248
H        -0.26309473862302   10.70936903121021   10.99624673058663
H         0.59037359392611    9.27375044716701   11.61398530667041
H        -0.59939232408659    9.10994081237100   10.29029063798625
C         5.58855402047726    5.87456545783455   13.43231837860496
H         5.87290493446263    4.82573137781247   13.39512298726079
H         5.20244157392796    6.09132552012351   14.42569535291820
H         6.47412713917856    6.48066278114012   13.25783311185223
C         6.78200178775504    7.00099177796867    4.25945428158895
H         7.54423719848058    7.32078758921504    4.96620340977016
H         5.94224682998691    7.68742751826650    4.32571685680412
H         7.19311303145185    7.04035300751350    3.25320777921060

