25
CSD_code = GAFZOC | q = 0 | S = 0 | Stoichiometry = C11H10MoO3 | MND = 12
Mo        4.07228833684015    3.35869677393772    6.83281199392078
O         3.59170714646546    4.10267187162901    4.98093739194386
O         5.44765178978021    4.56972295045599    5.90826445298412
O         5.02126489456957    5.44083631652102    3.88445211000418
C         4.71611528642540    4.76813154154906    4.83389132282368
C         3.79771496315438    5.49391654966098    7.89672690902573
C         2.56677816069012    5.17697378428688    7.28937920790597
C         2.09930739726820    3.95556884532931    7.81853690823522
C         3.05775057100599    3.51886146710620    8.79353731724529
C         4.12493686747026    4.47794868655255    8.82062809493613
C         4.47424539434371    1.52693367921765    5.33019130786958
C         3.53749976987943    1.19604930112888    6.33228010332644
C         4.21464782335648    1.28552959907217    7.59452902390839
C         5.56328672410362    1.70573551416481    7.34064292156400
C         5.70449743214993    1.83697868135800    5.94254181480902
H         4.36169010794108    6.40483369191771    7.73222091188818
H         2.03686614164470    5.80396959096005    6.58180592044737
H         1.10837665174018    3.55299752933148    7.68094613035023
H         2.84609980916256    2.81245428380553    9.58988318396273
H         4.90573185027623    4.53547172073554    9.56220140934936
H         4.29905485519567    1.48372988827421    4.26148826845297
H         2.57331983766786    0.74407726500005    6.16202420760320
H         3.88491701637628    0.79508438851640    8.50488264232120
H         6.37305670931244    1.69887922433111    8.05277510675912
H         6.62459446318133    2.06874685515770    5.41862133836236

