75
CSD_code = GAFZOE | q = 0 | S = 0 | Stoichiometry = C42H30Cl2Zr | MND = 12
Zr        6.66702042173431    2.63067961685915   23.35458934270489
Cl        5.38233216674197    1.81065400242058   21.58069731551544
Cl        4.66852995986101    2.94185302017334   24.52232670433440
C         8.59958283133450    1.68534436810362   24.59428673765557
H         9.46262205811595    2.26606875050366   24.89986791229780
C         7.48715664388904    1.42091714002711   25.42629782070861
C         6.64333020783558    0.48873548738295   24.71361519395335
C         5.48085882791976   -0.21228991592157   25.08581055244160
H         5.02743768175741   -0.04498692384163   26.05180702192266
C         4.95846827680592   -1.14548902882354   24.22515509925865
H         4.06565183781295   -1.68609094421983   24.50076252449883
C         5.58247660275710   -1.44158366534946   23.00304397504284
H         5.16050596728110   -2.20909549096947   22.37223250872395
C         6.72363818696410   -0.78978891412704   22.60832206361222
H         7.21964942619761   -1.06536086249257   21.68848594332612
C         7.26217353770056    0.21280065224988   23.43835547718657
C         8.45864265209203    1.01786650087792   23.34609566196005
C         8.54235464571621    4.16624205915224   22.81583420703970
H         9.58741422788542    3.88135749014408   22.86196133707589
C         7.78668626780137    4.69539155631391   23.89851163969173
C         6.51762168641517    5.11818016413438   23.35171884466111
C         5.45584722995143    5.87401258603085   23.88600833587413
H         5.49685453699904    6.23402120306774   24.90424246550991
C         4.38574269068847    6.18186806145046   23.08411443263203
H         3.56561601241789    6.75744864895929   23.48560962285085
C         4.34117533933952    5.77913724332549   21.74009945304631
H         3.48334760939549    6.04717881091992   21.14206867614197
C         5.37936798849803    5.08730669944250   21.16739310201590
H         5.36062561673437    4.84590085923291   20.11468332468208
C         6.49106423335778    4.74063707418596   21.95813860270219
C         7.76396877244873    4.13672020018714   21.63551898029784
C         7.38881361306439    1.77023749102449   26.84547309824625
C         6.15918829231019    2.00802483489525   27.46455939811148
H         5.25687315279748    2.02766545826148   26.87205908867818
C         6.09398493990801    2.26358414524610   28.82104164462217
H         5.13463953068180    2.44458429208312   29.28378378672058
C         7.24777639266328    2.29394898454145   29.58703503032461
H         7.19234168581380    2.48933370719004   30.64770756204967
C         8.47389339187812    2.07480397396205   28.98201674139040
H         9.37931425179062    2.09897295393452   29.57065142686613
C         8.54534781477244    1.81215233852701   27.62821071864267
H         9.50530248278035    1.61529933803372   27.17403877292714
C         9.40350251583381    1.04261605075866   22.23083907182965
C         8.94667116581834    0.90585979236195   20.91509131423339
H         7.88214118045954    0.84696445490486   20.72039992718865
C         9.84318816496341    0.86887639588380   19.86442864387506
H         9.47863873666771    0.74613407988642   18.85619874621649
C        11.20180507123449    1.00913898149380   20.09571574500205
H        11.89731679668174    0.98823702020701   19.27076944853515
C        11.66271113572374    1.18187334254559   21.39019714287945
H        12.72047729702686    1.29757343187135   21.57681739159013
C        10.77622944222937    1.18873405946713   22.44988134945968
H        11.14772332398334    1.28557410220528   23.46029825330817
C         8.24680741906972    4.88901923051387   25.27251132152723
C         9.58836234839628    5.16295511644186   25.55344484932501
H        10.29994322961043    5.23115890085304   24.74268317116382
C        10.00642853784344    5.37388522595728   26.85326589472581
H        11.04755585397039    5.58120988094247   27.05337748280045
C         9.09448067331014    5.33506759021449   27.89479406241811
H         9.42021571902769    5.51599472160513   28.90765300631147
C         7.76312656160810    5.05795360350872   27.63069242887689
H         7.05092125906588    5.01697057838683   28.44037565490819
C         7.34157622336677    4.81606079112713   26.33734938248242
H         6.30834068716142    4.55107936377753   26.14568601308407
C         8.27289242530849    3.85104638415220   20.29196788064986
C         7.46297467823677    3.29789764986330   19.29700827833753
H         6.45891888854793    2.98283422980305   19.53828331170506
C         7.95197718529125    3.10833868411645   18.01853468491019
H         7.31157328646087    2.68025130341998   17.26099368625512
C         9.25520015298092    3.45810927933033   17.70519891133485
H         9.63228475511627    3.31276855153359   16.70372185085577
C        10.07260662702156    3.99240357977312   18.68692973291177
H        11.09113098938506    4.26563550563816   18.45283283424986
C         9.58791470345591    4.19100998704624   19.96463404338899
H        10.22732327231311    4.63472416335666   20.71349233568699

