43
CSD_code = GAGBUN | q = 0 | S = 0 | Stoichiometry = C14H16N4NiO6S2 | MND = 6
Ni       14.99302785151106   13.62758531878082   -2.58638995920353
S        16.29390710191506   11.36958211717264   -3.31499492211400
S        17.47105982184262   14.18560132014114   -1.69229452602000
N        14.29657360333122   12.34335819387903   -1.35679968562970
H        13.84109943316146   12.84891872432957   -0.58973886121815
H        13.52799174716428   11.95195270563178   -1.98043232952373
N        15.56380670427026   14.96796322031817   -3.82074351721727
H        14.94795648043459   14.93516063215277   -4.63994792266718
H        15.27928265582296   15.81788539106952   -3.24553281697098
N        12.76320974246177   12.23222372965507   -4.23404877450243
N        14.38569191012660   16.27048315421588   -1.06983070822111
O        13.64397744164592   13.13602449434179   -4.15274483883106
O        12.57184600492864   11.51598126913840   -3.24711455889660
O        12.15464304627786   12.10531960744104   -5.25939745296664
O        14.33102458302796   15.00796488269277   -1.10616104738813
O        13.98814072923938   16.84175575991262   -0.09334786452139
O        14.85337761138930   16.86075591249254   -2.04824387414347
C        15.99441814698648   10.64273053031530   -1.70286664732678
C        15.07216119651501   11.26822689512487   -0.86277544191782
C        14.91660406885575   10.79186225857856    0.43479195272448
H        14.22383721892168   11.28416480368444    1.10072566476833
C        15.63955553528473    9.69331253308077    0.86506197407286
H        15.51051228901808    9.33225520840931    1.87344462098282
C        16.51699919070651    9.05135896881406    0.00631742302521
H        17.06737636187208    8.18533880178611    0.33859613344243
C        16.69677710773071    9.52786916770667   -1.28147184458433
H        17.38549806625143    9.04142341341877   -1.95471086237445
C        18.05933115361390   11.80430105175777   -3.08921142466489
H        18.63185114769415   10.87621016542880   -3.08372699883530
H        18.31977281379251   12.37517933960453   -3.98106582974387
C        18.35987218185745   12.58940482251187   -1.82794681657463
H        19.42854408102605   12.80037268237702   -1.77815797952812
H        18.06743584301863   12.03257144604596   -0.93719713871846
C        17.92985265706127   14.87469844213806   -3.28355367169889
C        16.91580860628436   15.11807340796400   -4.21047146938935
C        17.26408486602679   15.53888596519530   -5.48979686453372
H        16.48862603215474   15.70675541731433   -6.22208356812355
C        18.59220319949927   15.74670542286177   -5.81744026942252
H        18.85058425852824   16.07390661545496   -6.81245140148651
C        19.58670703356128   15.54783591654256   -4.87349960440409
H        20.61993454409506   15.72666760730644   -5.12600890512924
C        19.25546649993798   15.10902995248503   -3.60260673053230
H        20.02316943115346   14.94194273072525   -2.86303063999957

