35
CSD_code = GAGCAT | q = 0 | S = 0 | Stoichiometry = C11H15I2N4O2Rh | MND = 6
I         8.62628065688259    3.08248587390490    3.09042284999759
I         3.77714582378920    1.70796460258887    1.33227003768627
Rh        6.19994810366099    2.38483123513649    2.22086378503452
O         6.77842416810536    2.79540898241213    0.21419070969614
O         5.89298856771464    4.34269553649162    1.44893340770817
N         7.57243041479534   -0.27345092108182    1.92923179172557
N         6.08049420495827   -0.33855792723931    3.47581631820597
N         5.10807623498403    1.35471716028607    4.81938072109909
N         5.42073748944783    3.47988581358391    4.90903969345636
C         8.45537356266716    0.15208083581639    0.87417170348072
C         7.59723776884552   -1.53315325364294    2.46124986898945
C         6.65942647409754   -1.58060495649584    3.43264016905099
C         6.64287489828002    0.47254695984485    2.54932309974408
C         4.96381064533182    0.01904423073966    4.30758693417206
C         4.74110836644055    1.75539620013866    6.07813750211759
C         4.94189775129201    3.09045588744975    6.12946704869532
C         5.52934817034096    2.41721766072857    4.09412653638183
C         5.77098187847936    4.84222882434222    4.60036435756724
C         6.37557102901679    3.97926920443717    0.34544477147720
C         6.45971284419578    4.94736779624335   -0.80216473880635
H         8.03134886323222    1.01361315665947    0.35883156665150
H         9.42763340057182    0.43182842558526    1.28583248075609
H         8.58521780166108   -0.66176824926641    0.16183705779910
H         8.27195835942775   -2.28566367618385    2.10924899764911
H         6.35565774996959   -2.37704388336658    4.07924755896053
H         4.90294573957172   -0.68152063156659    5.14659085610524
H         4.03556411480389   -0.04191264289716    3.71260026913809
H         4.36950401844906    1.07081906944318    6.81149326561608
H         4.78338111791643    3.78694880456035    6.92660968434519
H         5.05293364836428    5.51427983319331    5.06868580566195
H         5.75293730425149    4.99614208109290    3.52170321306234
H         6.77335210046583    5.06717399640388    4.97151018205716
H         7.10532807187496    4.54604987421155   -1.57803388487101
H         5.45837004791774    5.09725221226154   -1.20296846294042
H         6.83549860819533    5.90347188418385   -0.44608515747108

