89
CSD_code = GAGCOH | q = 1 | S = 0 | Stoichiometry = C30H48Cl2N8Rh(1+) | MND = 6
Rh        8.74005777585665    1.78188083890785    5.52743829074251
Cl        8.47764361885070   -0.53265285815922    5.34622834926609
N         5.95093485320014    1.45128567835923    4.12177945236555
N         5.89476584349311    2.64129523375766    5.90573057506193
N         7.02590228615678    2.31078931586432    7.92868155601735
N         9.12329279161223    2.85220765101617    2.59673842710745
C         7.75741674771946   -1.85669160302953    1.85789236568210
H         8.21020421720985   -0.93891979363431    1.48799085226874
H         7.98763977601509   -2.65024145569440    1.15214863532520
H         8.20621150761566   -2.10367501824285    2.81689730584358
C         6.24680265669615   -1.71068812418617    2.00941243465289
H         5.81059476833966   -2.69819763004480    2.16584147838583
H         5.82079141342860   -1.30416218133049    1.08900936063208
C         5.85254279822153   -0.83055888729271    3.19490943762865
H         6.28526987285741   -1.24320772247703    4.10683401006158
H         4.76538570283636   -0.83189607836862    3.29891392144365
C         6.35027110217201    0.60562165511717    3.02219746558985
H         7.43922312169222    0.60612679778200    2.97769786995758
H         5.94342041569259    1.02250750084332    2.09549871098082
C         6.73460758431935    1.96394109890900    5.08731737125278
C         4.64509350020104    1.80369658868175    4.33237699836160
H         3.85707577355083    1.50160515909031    3.67430663569917
C         4.60551040603618    2.54986182527108    5.45890102387822
H         3.78583289442037    3.02128449114898    5.95958625119924
C         6.32022907094909    3.27824975747016    7.12749789793216
H         6.99604407887405    4.11374988483324    6.88676117490279
H         5.44695993984449    3.63957111320568    7.67517744853901
C         6.66064828217768    1.89881826903672    9.18012540850742
H         5.85585982624168    2.34761716134156    9.72412562177051
C         5.16691226163797    4.86745571397300    2.55158400084265
H         4.65882327014217    3.91154631530344    2.44254308210615
H         4.42143590309153    5.65548608293405    2.48989221650126
H         5.61963905910944    4.91264360903178    3.53905350308397
C         6.20753243383904    5.05264070074747    1.45379991830111
H         6.72557870755074    6.00145881110303    1.60326378203847
H         5.69687053708442    5.10378743649959    0.49068200210644
C         7.23693440102833    3.92282956460608    1.38986786867505
H         6.72409673646098    2.96401894319039    1.29607436305472
H         7.84256498326155    4.06426891949998    0.49348661452432
C         8.13520786803335    3.90820121396108    2.62537975448667
H         8.65824948774324    4.86679469237474    2.70854968942799
H         7.53776067795750    3.77606086452069    3.52700560712547
C         9.40916021967644    1.98220904411230    3.58439752364322
C         7.50079561115701    0.89354740041128    9.51164565886013
H         7.53954927702364    0.29705576330054   10.39826470795896
Cl        9.00247458767269    4.09637315740733    5.70814908757449
N         8.35671918818009    0.71131170219629    8.45810294724666
C         9.34488790100379   -0.34460483737357    8.42947512597614
C        10.24319691421018   -0.35916617454845    9.66496404626255
C        11.27256773045591   -1.48900411201169    9.60107531014303
C        12.31315037338487   -1.30392379960048    8.50324050073444
H        12.82129341549615   -0.34803552037601    8.61220509273389
H        13.05858774045446   -2.09198893595531    8.56494211521762
H        11.86037190136005   -1.34914533632447    7.51579664167734
H        10.75448706153549   -2.43781087551575    9.45166399836929
H        11.78325052540770   -1.54012543223240   10.56418434470788
H        10.75605258071083    0.59964053863187    9.75865748986470
H         9.63760349734956   -0.50051910420865   10.56138442088787
H         8.82190338053826   -1.30323106335409    8.34634534698886
H         9.94230869735748   -0.21244617167684    7.52783567920683
C         8.07076084526105    1.58126387325495    7.47041952298878
C        10.74542466340889    1.59960660938524    5.96761600796016
N        11.52914628322363    2.11228169710225    6.93309369586140
C        11.12987719135661    2.95807727243846    8.03259536179613
C        11.62772284608331    4.39420225665177    7.85976931155423
C        11.23357507326847    5.27443568614190    9.04521634300340
C         9.72297646589345    5.42057601306353    9.19675879078155
H         9.27012349439394    4.50285543557334    9.56671756625275
H         9.49285785918512    6.21417111366975    9.90248229019854
H         9.27415752046289    5.66756355766068    8.23776668029416
H        11.66988292099494    6.26189878830419    8.88875227552406
H        11.65956134195666    4.86787687478505    9.96561180005557
H        11.19501226758127    4.80683599147139    6.94784115665083
H        12.71486651685693    4.39543643189798    7.75571731619126
H        10.04092287594010    2.95767932073343    8.07706639699127
H        11.53667078318296    2.54123872208366    8.95934315428222
C        12.83496142178253    1.75978830060197    6.72247223605615
H        13.62301950998208    2.06187965405709    7.38048926409652
C        12.87446728539759    1.01356276714883    5.59598463249598
N        11.58519690853416    0.92219879985977    5.14918611314880
C        11.15968723450764    0.28523972643948    3.92742751149922
N        10.45403362521140    1.25267455926102    3.12618277962264
C        10.81930493569480    1.66461775160759    1.87472823190253
H        11.62407811597335    1.21579363755269    1.33072863308342
C         9.97920485418649    2.66992548015309    1.54320014886516
H         9.94050304783016    3.26644826610229    0.65660108711693
H        10.48385626897299   -0.55024345511365    4.16816639055591
H        12.03294924797655   -0.07612398063444    3.37976328986884
H        13.69409903870050    0.54209106994147    5.09527323991369

