53
CSD_code = GAGDAU | q = 1 | S = 0 | Stoichiometry = C21H30OsP(1+) | MND = 10
H         5.05953360601768   11.73125554117784    2.77507673452104
Os        4.08132627435376   10.62577684517093    3.24655897288960
P         2.34958845954165   12.11677933308258    2.86920733516162
C         2.01857382449394   11.19166281134437    4.40209988640429
C         0.76865011896677   10.40199665141763    4.63803286605478
H         0.94513746069921    9.57691449542553    5.32767264964626
H         0.34409000021884   10.00389433829604    3.71858769840297
H         0.01677211105233   11.05083196643993    5.09221127881385
C         3.10377206225714   11.07683046227756    5.27330502528064
H         3.01772318298649   10.36463317548921    6.09056683676927
C         4.30502734290304   11.84386736912562    5.13953582070812
H         4.18150885285805   12.89326256397736    4.86786003019021
C         5.47783951489677   11.62394245774946    5.98502645733610
C         6.47192609968796   12.60954334760063    6.01232827217608
H         6.34557066689999   13.50146974824631    5.41677779877586
C         7.60835526159339   12.45369643598583    6.77962905248248
H         8.36166664764338   13.22607148576894    6.78658762291002
C         7.78142295964151   11.30892301931529    7.54187396449140
H         8.66754269249151   11.18559169993250    8.14446089201963
C         6.80768224182114   10.32291708078089    7.52805238121542
H         6.93556408490091    9.43124300726830    8.12304626368575
C         5.67157563616014   10.47433853125164    6.75787245726560
H         4.92827289299217    9.69128554469302    6.77328828294075
C         1.04441353945984   11.67529456398378    1.62668110252913
H         0.96443893093345   10.58185722853024    1.66653523378194
C        -0.32429407464013   12.29407435280580    1.89776081968404
H        -0.32104810687916   13.36454027124717    1.71012693649228
H        -0.65328886137868   12.12439604167458    2.91993694544868
H        -1.05668741064928   11.84823157697360    1.22770491986358
C         1.58447170037000   12.06870643252400    0.25178435923018
H         0.90616138842496   11.73214100240387   -0.52889430970071
H         2.56314841743846   11.62083328305056    0.08188094804792
H         1.68532083357601   13.14877219430601    0.16591143736360
C         2.23536325467246   13.97962914185610    3.06698550210117
H         1.51776732641780   14.28117850093462    2.29589142870469
C         1.67659641176943   14.37279060707036    4.43042975586867
H         2.34342087092958   14.08674642853490    5.24004899064244
H         0.70624380571999   13.91041318810982    4.60125226822085
H         1.54672699603876   15.45238681745807    4.46720549814685
C         3.56770423530244   14.64767355694128    2.74318608313342
H         3.42547480723872   15.72256934343700    2.65740585046581
H         3.96188798300791   14.27372646595101    1.80007764941045
H         4.31226300281431   14.46588293133260    3.51282502736207
C         3.68842541055007    8.87132246803383    1.79884599431969
H         2.97690208764967    8.81713405793709    0.98983946811389
C         5.02905541952735    9.34333121867503    1.69171239404364
H         5.52924376459841    9.62207677031456    0.77312997603120
C         5.68866538826535    9.07437932974939    2.94831202774206
H         6.74929918545049    9.16107295910620    3.13236279194097
C         4.73135542938934    8.51396863660546    3.81169598890419
H         4.92946268029410    8.12068635831038    4.79613730942537
C         3.50089677635612    8.39896720959462    3.10796638169992
H         2.61498681227208    7.90588915073082    3.47820264084358

