92
CSD_code = GAGGED | q = 0 | S = 0 | Stoichiometry = C38H49ClNOPPd | MND = 4
Pd       10.39509170105566    6.16488684022544   13.81336282776863
Cl       12.28534345071964    5.58872458155165   12.50468757272460
P         9.43823775203248    6.75794690985824   11.89925385249157
O         9.94849589713456    8.08110554482601   11.17402770695150
N        11.11068626977763    5.29976119919697   15.67735136987868
C         8.89149053457274    6.72114798059801   14.99341332764817
C         8.02307122669480    7.77052874436940   14.86729035890414
H         8.04738259026034    8.41335768059789   13.99365488974588
C         7.04531433243117    8.04447798016944   15.85065358555553
C         6.11542681803156    9.09345011386676   15.70411603731198
H         6.16037415351330    9.70206619984799   14.81158100089674
C         5.17140661972347    9.33016955679532   16.66391545472632
H         4.45946870640432   10.13405131907695   16.54272159207566
C         5.11642322409751    8.53161659555248   17.81645202261627
H         4.36567462945202    8.73391084408804   18.56676109167110
C         6.00387631950106    7.50584617373178   17.98703412103979
H         5.96434312834672    6.88578823980683   18.87214162991742
C         6.98496792710801    7.23333886920105   17.01288146701707
C         7.91534769770111    6.18221018435847   17.15303055860061
H         7.88635388017825    5.57351436625010   18.04820699161915
C         8.83580310074927    5.93392348216828   16.17289617208979
C         9.83433755019571    4.80294973361802   16.24427094701447
H         9.98086225594263    4.46119826878220   17.28187325161298
C         9.26423648266650    3.63880008341449   15.42433226571495
H         9.84208233758730    2.72576496100515   15.54714679075158
H         9.24048593567827    3.92376895987404   14.36063001660039
H         8.24342923807850    3.44573098348704   15.74968470038458
C        11.68590272432263    6.36509472926587   16.53057266364376
H        10.84241272532624    7.00885776576423   16.81752228015563
C        12.35373108538907    5.86273336929048   17.81432623925910
H        11.68482998992533    5.23198227827604   18.39541123349514
H        12.61879848635535    6.72019640750375   18.42792812113151
H        13.26332786274284    5.30757377622066   17.59989499355816
C        12.67080676342312    7.21427763741765   15.72367834899240
H        12.24973838552846    7.43021780296162   14.72924932829387
H        13.62145818506232    6.70238068791272   15.58733691138194
H        12.86133044805903    8.15299379525471   16.23876019398324
C        12.06253267649527    4.21133803036553   15.45149365009077
H        12.16070649302111    3.56890279722799   16.33503390071922
H        13.03571267548891    4.62597927408907   15.19648147466832
H        11.74521194269013    3.60432592204217   14.60174937672794
C         7.63906280144243    7.00019400796304   11.81735878452494
C         7.04500652213333    8.08781166503523   11.19681144775843
H         7.66547809540859    8.83733317549048   10.72870412344806
C         5.66572600077446    8.20881489911666   11.19533114535933
H         5.20068079196949    9.05860208703691   10.71647375593558
C         4.88208256262927    7.24819938035563   11.81144677845014
H         3.80692076439676    7.35084340875333   11.81591150525992
C         5.47492940742851    6.15625940019244   12.42747543103818
H         4.86207428527722    5.40997041961052   12.91116014466098
C         6.84989927768774    6.03342508822277   12.42930130570216
H         7.33370478806848    5.19715420243257   12.92248507058320
C         9.58489663940836    5.41575968213416   10.67369603052263
C         9.76898840633410    4.11707597944019   11.12713349737486
H         9.88101419544751    3.93984843228613   12.19610592173826
C         9.85108774594541    3.07289888433451   10.22545954838323
H        10.00524154529985    2.06291512411706   10.57675270369331
C         9.74917534711997    3.32645677223822    8.86694518202544
H         9.82518490900890    2.51283471781070    8.16039998738901
C         9.55514185314566    4.62066612225509    8.41226176047480
H         9.47557622149531    4.81471855260833    7.35235045150713
C         9.46385956888744    5.66505181265103    9.31414429114322
H         9.30597817803269    6.67779070527142    8.97260519906739
C        11.20814741274667    8.67336669115025   11.55543138234758
H        11.94331307437526    7.88008441932318   11.73484254841392
C        11.69295015521067    9.57422968752576   10.41767579347738
H        10.94736592863115   10.36905557674184   10.28634826101304
C        13.00966391046115   10.21679632573029   10.86113759157544
H        13.75044320274258    9.43649248632926   11.03945671442185
H        13.38359362820053   10.87145616635194   10.07386219703046
C        12.81947329723531   11.02610994307525   12.14116359981112
H        12.10278444072299   11.83149024320280   11.96216598867154
H        13.76837755364152   11.48318621307777   12.42962466700497
C        12.31096319679842   10.13921897488176   13.27710772092708
H        13.05747058175171    9.35991647727080   13.46491225315991
C        11.00997562547557    9.46717087859788   12.84346854557307
H        10.65390964702236    8.77453489703670   13.62897316802252
H        10.23558611510989   10.22215557400503   12.68257125265829
C        11.77986306856291    8.81317244803270    9.07913537573585
H        10.78168611467713    8.40089749898217    8.89892060939387
C        12.10077971586882    9.75939113838539    7.92203010711390
H        11.97746455764308    9.24106098940201    6.97363054216569
H        13.12781654398405   10.11130590679690    7.97847056045616
H        11.43726630995172   10.62188686933474    7.92841153469720
C        12.76907907793242    7.65044010781693    9.09385804412867
H        12.72669086671309    7.12431743466752    8.14227258902020
H        12.53475425081072    6.93462074614366    9.87705268080799
H        13.78665267367752    8.00455581077799    9.23795923358755
C        12.09864604045929   10.94095388115001   14.55762850934100
H        13.03691622015438   11.37037525694123   14.90113456732106
H        11.69890323413614   10.30506975983553   15.34445935924270
H        11.39413944435057   11.75207240826813   14.38547021740303

