46
CSD_code = GAGKAA | q = 1 | S = 0 | Stoichiometry = C16H23N2P2PtS2(1+) | MND = 4
Pt        2.26027571325288    0.42286834346243   -1.40513992610070
S         2.37260459328530   -1.00327479330922    1.46869116005330
S         1.28849322166787    1.39341997201693    0.46998429407189
P         3.09085590227328   -0.80948497293527   -3.23433394137392
P         1.61937841143145    2.29902189124252   -2.53937778273326
N         2.78012835096616   -1.07991268517774   -0.10065920635829
N         1.60147484970502    0.32008064948597    1.62890562395225
C         1.97749116132743   -0.56810797737299   -4.64505524745907
C         2.38105837046997   -0.50376877432834   -5.97056000993184
C         1.43147041963959   -0.35884388414842   -6.96821835369618
C         0.08607853259461   -0.28745198323759   -6.64966990691979
C        -0.32077574418993   -0.35469031062486   -5.32534942073249
C         0.62379749420806   -0.48911945271039   -4.32672308897303
C         4.79971710711126   -0.69750116082657   -3.87348383915655
C         2.92876997126146   -2.62270587801672   -3.00042572650099
C         2.23214902456773    2.52413336629380   -4.23143267193647
C         3.61531709931810    2.53091650709411   -4.39235985640769
C         4.17153262940243    2.72561077373681   -5.64213850284377
C         3.34698517694708    2.90786033593042   -6.74186058489842
C         1.97165592707853    2.90024626631247   -6.58543958762762
C         1.41006383508012    2.71079811441306   -5.33405469123364
C         2.23028525203098    3.81542620528298   -1.72126033521506
C        -0.17670737592223    2.59864018674672   -2.59591805054359
H         3.31250443392730   -1.91716996009604   -0.30022405760833
H         3.42677421793103   -0.55969945926975   -6.23020526735422
H         1.74479138891917   -0.30708747858607   -7.99949352399665
H        -0.64813222938403   -0.18072463513651   -7.43294163127690
H        -1.37124358191000   -0.30671091870472   -5.08008151593336
H         0.33035653699056   -0.54681271251665   -3.27957120398709
H         4.96330617237396    0.25852855562251   -4.36281612636145
H         4.97938459726665   -1.51077141047585   -4.57568396600087
H         5.49242764230487   -0.79041705229451   -3.03778787533226
H         1.95998047264272   -2.85903321384648   -2.56409811793182
H         3.72102572536871   -2.99135664252403   -2.35134858229249
H         3.00989001055135   -3.11218487353163   -3.97099024814424
H         4.24347387550221    2.39224603443124   -3.52035016853103
H         5.24444117770211    2.74302520061264   -5.76318780615895
H         3.77836034069894    3.06042721115189   -7.71885242439719
H         1.33064892505434    3.04751738752459   -7.44083713232599
H         0.33716529262880    2.70600574932143   -5.22594706704709
H         3.31106651536229    3.76980432137204   -1.59991174959144
H         1.76867826606412    3.90950894035329   -0.73953984185034
H         1.97476545867807    4.68138948178530   -2.33187177933734
H        -0.67947249406423    1.82751194566710   -3.17450942466521
H        -0.36619806097973    3.57716281545923   -3.03651692647734
H        -0.56049460713177    2.58377997436121   -1.57625391084180

