40
CSD_code = GAGMUX | q = 0 | S = 0 | Stoichiometry = C19H15Cl2N2PPt | MND = 4
Pt        0.40475649908606   12.14678822424885    2.17986324416225
Cl       -1.16614864694612   10.84688647311666    1.21528074443254
P         1.90272185037167   13.56925057341006    3.12298436404047
Cl        0.19827231740597   11.06535567559939    4.15052889701375
N         2.23195120686140   14.52765075348362    1.72162109527111
C         3.00673381159224   15.63789241766214    1.44966338265936
H         3.61715152051437   16.06994292998174    2.21942380916628
C         2.85311464815001   16.02069873353827    0.15394603897668
H         3.33656640326580   16.84513563000039   -0.33098702728829
C         1.92272729160389   15.11812171970100   -0.44586952263598
C         1.33286473271906   14.93872388547087   -1.69682916107899
H         1.56235819709439   15.59222284592122   -2.52400392204498
C         0.44105189652498   13.88945713565277   -1.82856478515014
H        -0.04435753611867   13.70517233087861   -2.77341814799974
C         0.14329055410888   13.05085692283317   -0.75533668048070
H        -0.55975773738844   12.23459681377087   -0.84925524657032
N         0.69402084781521   13.20301212426203    0.44566169770353
C         1.56029709681399   14.21056553874805    0.57302577922867
C         1.20246659034273   14.79895361912223    4.26017857638686
C        -0.18397406626352   14.83253034715849    4.36793273981282
H        -0.77189282119056   14.09905987493001    3.82136072610701
C        -0.79023045683567   15.77194279522789    5.18154455142576
H        -1.86547162805304   15.79431306061775    5.27286138467262
C        -0.01262734186817   16.67920876266073    5.88370638898401
H        -0.48357231020447   17.41202378515502    6.52177118886215
C         1.36939004471886   16.64640524539995    5.77734743187698
H         1.97075217762556   17.35284490941872    6.33032837219083
C         1.98246713532183   15.70721745364749    4.96822218329808
H         3.06076945319721   15.66973018500761    4.89459439400265
C         3.53937735463493   13.21681775114196    3.80420922779326
C         3.58711147490289   12.81071963404765    5.13683485535423
H         2.67007015558090   12.77197824194385    5.70915164407369
C         4.79498362160045   12.45159432153458    5.70314441937936
H         4.83383192176264   12.13939241564987    6.73576473273831
C         5.95419527864594   12.48606658356670    4.94274543313600
H         6.89820253499484   12.20745015342290    5.38647471023053
C         5.90318048294196   12.86404837391975    3.61072271008546
H         6.80528892479779   12.87586447510033    3.01702577155212
C         4.69699021321214   13.21921232956896    3.03322087759547
H         4.65547630666014   13.49789495348013    1.98922312103566

