52
CSD_code = GAGPAF | q = 0 | S = 0 | Stoichiometry = C26H20AuBrP2S2 | MND = 4
Au        1.16257084028731    1.37275512419938    1.69645645737439
Br       -0.81398794720087    2.20988708713028    2.98980152935209
S         3.36218307654190    1.82214893107683    0.80158899857700
S         0.18656396628734    2.61962714985194   -1.44825305757583
P        -0.92571297388273    3.12472417827301    0.22025236694350
P         3.85117046040634    1.70634870412069    2.75798502228762
C        -0.08723593691032    1.59840093719327    0.04997755291856
C         2.57833029493360    0.56729926062760    2.86882732867177
C         0.78821502292395    5.32323443092636    0.33722645959609
C         1.17126180276350    6.56618200243929    0.80841976587062
C         0.38539053040360    7.22900654656021    1.73822328019940
C        -0.78148389126955    6.64742431462991    2.21180253363364
C        -1.17606843287984    5.40683044226058    1.75007489020601
C        -0.39158925451142    4.75515649703103    0.80296326395425
C        -3.33435231993350    4.29689799342763   -0.55885839443566
C        -4.68374110463358    4.23799274990493   -0.85225828050578
C        -5.37687377519790    3.04529845519909   -0.70697445472502
C        -4.72768278261149    1.90108326746107   -0.27010830898031
C        -3.37764125507990    1.94468891216430    0.02351623341307
C        -2.69210215273183    3.14400503067314   -0.12328477458893
C         6.63965196501016    1.93052893895473    2.91206809243070
C         7.91022301617384    1.38930534367098    2.97415622252145
C         8.07860202372681    0.01468530122659    3.04739339712829
C         6.97892758437190   -0.82927428007289    3.05249720480458
C         5.70440044067852   -0.29839482624724    2.98428336993514
C         5.54133090209365    1.07936284419106    2.92236451331698
C         4.39004206302350    3.43255860194689    4.84055005426817
C         4.25087518160544    4.60111340611861    5.56352792099888
C         3.53268098454345    5.66278232480829    5.03459676249596
C         2.95078659360687    5.55785186102951    3.78159857600520
C         3.08719488257126    4.39328255526199    3.05004856623285
C         3.82292850882027    3.33838995112684    3.57273311187006
H         1.39395834347983    4.80110994769333   -0.39318929541985
H         2.08446699755858    7.01563376161630    0.44663995678958
H         0.68437724625490    8.20349150643518    2.09638403603326
H        -1.38484399588875    7.16060744567120    2.94504715671723
H        -2.07198094988798    4.93020127458376    2.12235716549061
H        -2.78017626641513    5.21957836580675   -0.66894594273052
H        -5.19686463551361    5.12361135056421   -1.19665598907614
H        -6.43148011886651    3.00948803854866   -0.93617001285663
H        -5.27398383636116    0.97723255068380   -0.15564825007923
H        -2.84409064349555    1.07062035583994    0.37204230710111
H         6.49334692155270    3.00102217592583    2.85323035459664
H         8.77240639186562    2.03988356217020    2.96328911911987
H         9.07440128560411   -0.40043201440024    3.09749798918444
H         7.11615659783942   -1.89895144575809    3.10741567758287
H         4.82437973813583   -0.92874112740003    2.98225545245364
H         4.93711301490948    2.58946798070335    5.24367982872537
H         4.69539047297420    4.68205868458303    6.54444425235640
H         3.42022641929228    6.57276748225886    5.60467650912706
H         2.38260140510479    6.38042018881964    3.37372809717809
H         2.64013729792828    4.30584587847309    2.06712538348377

