80
CSD_code = GAGSIS | q = 1 | S = 0 | Stoichiometry = C39H33CuF3N2P2(1+) | MND = 4
Cu        1.32794159974609    1.74380865971936   11.09065610329047
P         1.21719177553297   -0.29783839517313   10.05453081697660
P         3.08841674934095    1.04786156880677   12.39422849992083
F         3.68042239938268    7.12321123446498    7.64690672714667
F         4.45040084431890    6.23963186815955    5.84017177178313
F         5.36891826368606    5.79358919470134    7.73517140928211
N         0.20714200342286    2.84526808103972   12.42688119851872
N         1.20104971592780    3.40532441484978   10.01215346529031
C        -0.13608811833976    2.59033350785368   13.67969692865064
H         0.02823187499847    1.57806105916623   14.02414080976656
C        -0.68288724248886    3.54845265870664   14.51646886302448
H        -0.96010674070731    3.29268646613767   15.52581285274810
C        -0.87718663546097    4.83368343970191   14.02280407488296
H        -1.30976537543222    5.60111843852503   14.64532934697278
C        -0.50091101354074    5.11270238612800   12.72276613031217
H        -0.61548835039581    6.10132910665030   12.30729521681835
C         0.05100149861079    4.09086377354864   11.94654452323368
C         0.52851944101992    4.32160467326987   10.60537459765381
H         0.31381082979054    5.28048119441525   10.13735961614755
C         1.80452917857915    3.58975336209376    8.77799794750530
C         2.58572946905454    4.71701388209293    8.52718783821058
H         2.68865424051995    5.48582685152101    9.27868188662534
C         3.27190175099596    4.81503749240630    7.32745698425746
C         4.18228887995090    5.99568644565821    7.12380641431388
C         3.17791905429279    3.82338479155400    6.36152388368243
H         3.71736241436406    3.92025208098310    5.43304635175274
C         2.38417942686959    2.71390126522385    6.61093582962699
H         2.29623815430199    1.93815866534950    5.86695140431430
C         1.71502780998833    2.58738440819965    7.81076149521805
H         1.09661410762493    1.72442898040308    8.01052078756421
C         2.88483213876078   -0.96043824320704   10.51076793784591
H         2.94182178604223   -2.02030829056489   10.24122906839926
H         3.63732304870120   -0.41084755121720    9.93479235369503
C         3.13323562305654   -0.76068904352494   12.00189794599690
H         4.10729883821715   -1.16692991079613   12.29452112924784
H         2.35498313151526   -1.26839028948907   12.57912910802578
C         0.14569018616475   -1.40230037106419   11.02177807910848
C        -0.67739911262078   -0.83083774762052   11.98599365112619
H        -0.68362683915708    0.24759875618237   12.09262055291094
C        -1.47747153295514   -1.63251137063079   12.78051160644641
H        -2.11840973357847   -1.18817972846886   13.52725844228450
C        -1.45871385807263   -3.00724298430381   12.61011386384388
H        -2.08237411406357   -3.63489866586840   13.22765256192988
C        -0.64655141651702   -3.57933220666655   11.64212376912885
H        -0.64116891179587   -4.65021174873521   11.50811292408429
C         0.15552567233654   -2.78344070514628   10.84599887392540
H         0.77913922143036   -3.22770637287302   10.08264621329119
C         0.99746067747781   -0.90210473334321    8.35316454261547
C         2.05255448268005   -0.92414943533804    7.44476770888530
H         3.04491988548348   -0.62903594415093    7.75364432525021
C         1.82977681093022   -1.32797696439813    6.14078128275806
H         2.65293537082455   -1.35972490098051    5.44288168555007
C         0.55772393364537   -1.69184515397184    5.72934667983630
H         0.38988557464243   -2.00842302684984    4.71170789333433
C        -0.49976841749140   -1.64340743153363    6.62380209281745
H        -1.49283128819712   -1.91836598177307    6.30301774235534
C        -0.28558049941390   -1.24220008223495    7.92893566422888
H        -1.10795499391225   -1.20133666446729    8.63060531600481
C         3.26614358954971    1.09329547307095   14.20042583705970
C         2.48567621299586    0.26379370995940   15.00320442790290
H         1.82941120315780   -0.46903190448966   14.55331665265103
C         2.55325404482089    0.36942215449878   16.38010122187191
H         1.95929618721672   -0.28709122366844   16.99813092268634
C         3.37984779731896    1.31450899129864   16.96646892390381
H         3.43460272926244    1.39069415749282   18.04132698941419
C         4.13000572502269    2.16615185707689   16.17147839512077
H         4.76635541341574    2.91011542477226   16.62609685454392
C         4.06678405623819    2.06691802750333   14.79399918291726
H         4.64822615586428    2.73455982834381   14.17291877857654
C         4.71123833855096    1.55719176598757   11.75375698077187
C         5.90550848869661    1.09724083839070   12.30334717099873
H         5.88886761011507    0.44262673705775   13.16413223454906
C         7.10871902819704    1.49530109694853   11.75144015621118
H         8.03568592575221    1.14387113277770   12.17850663231735
C         7.12948667829823    2.34543949183284   10.65532420139141
H         8.07273736492009    2.65587228463475   10.23352980781969
C         5.94371392395702    2.80065503692886   10.10252956360853
H         5.96031299566120    3.46617641970805    9.25261328005218
C         4.73688000840075    2.40639167411253   10.65235977510188
H         3.80053285251736    2.75293226260092   10.23362522008610

