52
CSD_code = GAGSEO | q = 1 | S = 0 | Stoichiometry = C20H24ClN4O2Os(1+) | MND = 9
Os       -5.31520799591559    5.84110640981290    4.82333059325470
Cl       -3.25692441359238    4.88792325691749    5.07774221098977
O        -8.23854405510682    7.43204065373558    2.47101134682481
O        -6.35896009476670    9.43183180457260    1.84959663410285
N        -5.44396663530706    5.43485887625199    2.89990197501711
N        -6.57241801336257    5.32330886011984    1.00772088547090
N        -4.52988900180368    7.58952589035747    4.36825848284186
N        -4.10845146559070    9.60741409618804    3.53803811138933
C        -6.36015197396374    6.04304485532420    2.13410767547691
C        -5.73552030792949    4.25526120043538    1.04941064266277
H        -5.68359764408152    3.53981013032842    0.25449327152622
C        -5.04972063403860    4.31765504943365    2.23051231317147
H        -4.30400425692227    3.65683152505251    2.62877770446467
C        -7.45544654265602    5.66618741647382   -0.07501907946639
H        -7.88259500594484    4.75743193950304   -0.49552032637247
H        -6.91144702044529    6.19521202052037   -0.85988231198445
H        -8.25697716852178    6.30563219819880    0.28952483671977
C        -7.03624988151868    7.30505034644157    2.49438316704224
C        -4.95298903714695    8.53064103152665    3.48868924757039
C        -3.15154397284995    9.33235591293421    4.44136002534761
H        -2.35713028417491   10.01392021457275    4.66912333964542
C        -3.41025134631676    8.08655321661965    4.95182307695869
H        -2.84214414580014    7.52337691831811    5.66667562880794
C        -4.19965979158573   10.82122402524741    2.77617857316476
H        -3.38864023953071   11.48359550184787    3.07055010221298
H        -5.15732458601886   11.31202313922615    2.95113505653146
H        -4.12971907982970   10.60809784683590    1.70931291550009
C        -6.10141751608536    8.51367778351909    2.60911981788854
C        -7.90362770193050    4.87070978891763    4.93753663693420
C        -8.08456181624451    6.12126158134960    5.53550209517697
H        -8.86738134464437    6.77136693937740    5.17211436347659
C        -7.34039356240139    6.50038838631378    6.65519425976111
H        -7.57514343051375    7.43462288901765    7.14758851312923
C        -6.36873090419108    5.65788242764507    7.21078725630276
C        -6.08989200159933    4.44957039165271    6.52947922566842
H        -5.39623898872124    3.73629878517440    6.96089637002942
C        -6.85561999291684    4.05972639481948    5.41254390357267
H        -6.72928942234136    3.06148849983784    5.00725143977260
C        -8.82748293631566    4.39898968803503    3.86215620682350
H        -9.71841139671584    3.96831723310437    4.32078266240141
H        -8.36436470091305    3.63009336686022    3.24738593822676
H        -9.15084643046989    5.22784858291260    3.23581930081448
C        -5.67497302260787    6.03603465575442    8.49854331524193
H        -6.33101314311646    6.73092115591814    9.03486991601797
C        -5.40943512018995    4.83027716163379    9.39937845663124
H        -5.09282069385787    5.17531962436355   10.37984410976162
H        -4.61765110355937    4.20324843443789    8.99760657190132
H        -6.30926279484355    4.23215474716119    9.52374689599900
C        -4.36278061483503    6.76093452036133    8.17579828228447
H        -3.85382411788641    7.03645103411991    9.09548104903187
H        -4.55559510650288    7.67014837007298    7.60590908826362
H        -3.70636754185939    6.10615322085260    7.60272822600708

