104
CSD_code = GAGTEP | q = 1 | S = 0 | Stoichiometry = C54H45BrP3Pt(1+) | MND = 4
Pt        4.45660223456191   -2.33905367589802    0.33443366677186
Br        5.67504409022732   -4.37817306605782    0.97225622612275
P         3.30927279362236   -0.33792354699583    0.04102481434654
P         2.56548379730627   -3.68764911137234    0.11665479036723
P         6.58921418317986   -1.33094301378213    0.43857514701162
C         1.51102705858835   -0.25207875330065    0.34141896661666
C         1.00691593366376    0.02057185289685    1.60984696969970
C        -0.35848730505554    0.10818091936507    1.80985781046104
C        -1.23338283322536   -0.08574541902940    0.75407971918469
C        -0.73741735658725   -0.36799551295485   -0.50815785206602
C         0.62654613323531   -0.44771296786768   -0.71711963083039
C         3.47878065024761    0.54256194427414   -1.53708730962605
C         2.71560941551756    1.67456477465648   -1.81395295008875
C         2.87449815204414    2.33234964327235   -3.02001923377930
C         3.78101529202312    1.86415600624436   -3.95907400535213
C         4.53080849795115    0.73002496205248   -3.69445520373456
C         4.37985297169205    0.07266762187099   -2.48659416753460
C         3.92439183453942    0.78332344981344    1.33302652660137
C         4.08256717893730    2.15358787015533    1.18173797964087
C         4.49066406250678    2.91766870964113    2.26165255987571
C         4.73539395432398    2.32546817193186    3.48921746385915
C         4.58652303705546    0.95603462371596    3.64233087739738
C         4.18531813668062    0.18897581776486    2.56603809872370
C         2.73002178632930   -5.49423112959693    0.22549929292087
C         2.36009098894252   -6.21772787132172    1.35183159947789
C         2.52354849889457   -7.59216022063629    1.36466044442079
C         3.05980374185117   -8.24299813428666    0.26709565553052
C         3.43623818798437   -7.52030545474449   -0.85478078876267
C         3.27373567667912   -6.15010451361766   -0.87754810547394
C         1.66066435908270   -3.55996177996490   -1.45087850027581
C         0.54213709643788   -4.35256492673455   -1.69601060077623
C        -0.09892544406473   -4.27338653473493   -2.91821039760612
C         0.38376159647576   -3.43102315460604   -3.90889489330471
C         1.52080037772782   -2.67331388328874   -3.68345250234964
C         2.15703576781145   -2.74093191577784   -2.45673643244453
C         1.45425811640957   -3.28061362318608    1.48949140554070
C         2.09269444076911   -3.08456083842085    2.71389844042868
C         1.35522909918428   -2.81236009877462    3.84934822752806
C        -0.02667034890107   -2.73803077315558    3.76705051660234
C        -0.66238045029975   -2.92615293021547    2.55105549095315
C         0.07186712314048   -3.19469021009438    1.40849016568854
C         6.93581377736191    0.45878731363627    0.57595160211369
C         6.77647886628946    1.27916627297703   -0.53824726835113
C         7.05610391931118    2.62975104229663   -0.45883029885716
C         7.49915789137989    3.17936519871285    0.73304402190449
C         7.65896221020252    2.36987121022597    1.84454317395534
C         7.37664880419599    1.01777788439206    1.77093112023211
C         7.36636256697266   -1.73850091852496   -1.15223763901149
C         8.56729266958304   -1.14679869966511   -1.53934639065283
C         9.13946479216170   -1.47865057593983   -2.75339002738565
C         8.51967704551085   -2.39286870499916   -3.59164229883360
C         7.32036894989365   -2.97565899758361   -3.21730180408832
C         6.74565961154987   -2.64988445649573   -2.00218785896787
C         7.68670971192487   -2.00851080053303    1.72223259611879
C         7.20695277323623   -2.03821944904888    3.03032287582123
C         7.99691674226697   -2.52965863917026    4.05047064185134
C         9.26923031433290   -3.00324775654353    3.77132519529727
C         9.74156273059098   -2.99098572982557    2.47061349018745
C         8.95574120865653   -2.49705317800885    1.44328035165786
H         1.67783308139319    0.17742702746320    2.44134635446066
H        -0.73826710171870    0.33556393503123    2.79414485131108
H        -2.29806313668364   -0.01136944727961    0.91283392554552
H        -1.41297746623576   -0.51730523208560   -1.33693422093533
H         1.00578451392284   -0.64445095932971   -1.70934141128577
H         1.99068832029106    2.02780257203636   -1.09375103922963
H         2.28501501719346    3.21164466858054   -3.23098862905556
H         3.89683447969795    2.38020079204026   -4.89964888922138
H         5.23256182604707    0.35698950043391   -4.42550758348876
H         4.96429882371461   -0.81556654141313   -2.27506245834872
H         3.90204866431321    2.62280905670655    0.22625742714324
H         4.61475737346540    3.98306710011952    2.14258474268183
H         5.04652407115934    2.93013665401149    4.32689901310439
H         4.78110310360934    0.49301498190971    4.59834361887155
H         4.05354475716687   -0.88562465989845    2.66763655817101
H         1.94838599579743   -5.71448448750010    2.21490197715910
H         2.23479868621341   -8.15416460465109    2.23979226203204
H         3.19048226787552   -9.31391850608734    0.28623467335677
H         3.86132540094854   -8.02604663714802   -1.70820631276213
H         3.57420672626722   -5.57780017376488   -1.74625112488540
H         0.19142167966870   -5.04126288610468   -0.93993726226578
H        -0.97191623970676   -4.88008091207678   -3.10517797571306
H        -0.11835588465922   -3.37954915992984   -4.86270306617841
H         1.91373544161001   -2.03408456143263   -4.46033533172296
H         3.05430426838874   -2.16146170961526   -2.27025315475740
H         3.17489719951013   -3.17658773151195    2.76632941198596
H         1.85104485082556   -2.66708989102018    4.79745453034866
H        -0.60824959000042   -2.53443276307930    4.65303724647996
H        -1.73841901419373   -2.86732898611863    2.49022536435597
H        -0.42953320094066   -3.32208567630651    0.46112944149381
H         6.45268888413782    0.85667420663201   -1.47774008558678
H         6.93562763599915    3.25174530856590   -1.33321708668318
H         7.72647480654309    4.23256689274022    0.79243749376114
H         8.01289806913251    2.78962327115874    2.77389040390401
H         7.51611664658410    0.39608761028579    2.64288946258741
H         9.04533954286618   -0.42424844690785   -0.89200678556986
H        10.07306931593962   -1.02302168443327   -3.04672425906267
H         8.97226563345640   -2.64935838860869   -4.53711628859250
H         6.83492413158441   -3.68588092613351   -3.86952819427058
H         5.80645544412722   -3.11750983981185   -1.70711424243281
H         6.20313805951216   -1.69019591714649    3.23859338456737
H         7.61907706908700   -2.55364303166954    5.06162206433799
H         9.88548445974496   -3.39355356920560    4.56641806740337
H        10.72532144850586   -3.37566107940071    2.24885824099120
H         9.32654683398062   -2.51300948260513    0.42925312454027

