141
CSD_code = GAGTOY | q = 0 | S = 0 | Stoichiometry = C61H73B3O3Ti | MND = 4
Ti        0.55430884303915   -4.54978231175168    5.00063859356005
B         0.53513350913640   -1.61759635291486    4.29662818954646
B        -0.73153908716852   -6.22365230296400    7.07927834609413
B        -0.40348315572229   -5.63564645169181    2.45105345529304
O         0.40480817618170   -2.85059104158601    4.74104014410197
O        -0.17243459872747   -5.22660223552452    6.42244977225289
O         0.28881921369208   -5.45997499406103    3.55890378043554
C         2.02558415579283   -1.08487801356490    4.03439737042629
C         2.53781095776901   -0.02019955821603    4.79101439596373
C         3.84972873425437    0.39141492633132    4.62431764476760
H         4.23006795380455    1.21137170865629    5.21835204607041
C         4.69277333174775   -0.22908714028058    3.71162110019689
C         4.18755879772713   -1.28010660462257    2.96630331247426
H         4.82606897344372   -1.77826760895140    2.24879591316932
C         2.87625394789595   -1.71651568086980    3.12078804388318
C         1.66875314195516    0.67177882599751    5.80158895901603
H         0.82700064240537    1.15444837179883    5.30737007399325
H         2.23421327175985    1.42450587538031    6.34659161749228
H         1.26576523715148   -0.04803507421218    6.51189474881251
C         6.11206603907675    0.22843478802383    3.55789144081529
H         6.59731440722153   -0.27886116766934    2.72766520737816
H         6.67576950680485    0.01990637669177    4.46719257005696
H         6.15013319233086    1.30254516360154    3.38238913438196
C         2.39568040429657   -2.83919826152598    2.23893643797860
H         2.14349374645533   -2.44503859272415    1.25258349182825
H         1.50809972643136   -3.32457753346665    2.65356180967295
H         3.18337423224935   -3.58175498399929    2.10557285397442
C        -0.72998872549821   -0.66193887706471    4.09340646964974
C        -0.91462439995269    0.04439462781014    2.89547474372809
C        -1.99572933324907    0.89725238873037    2.73998174410175
H        -2.11062399708301    1.44066032410739    1.81208474210766
C        -2.93593312430083    1.06830936178271    3.74429188889896
C        -2.76402040091395    0.36020010465365    4.92191887243790
H        -3.48581316817866    0.47524971071836    5.71992909200835
C        -1.68248122940059   -0.49129962482075    5.10641843483323
C         0.03992558799288   -0.12980801515590    1.75214621328935
H        -0.25194863074349    0.49263142495679    0.90923703836600
H         0.04393443051771   -1.16979342156117    1.43158072575041
H         1.05092946145126    0.13728424692608    2.05258542317475
C        -4.10308205892077    1.99442488351426    3.57289023027381
H        -3.98035200238441    2.87502795845929    4.20385377878679
H        -5.03043855584199    1.50393475641600    3.86595194718457
H        -4.19115490837128    2.32368191875334    2.54015680911850
C        -1.55943127435990   -1.17184018310195    6.44266014777803
H        -2.51984939127649   -1.58827472741879    6.74531982188546
H        -1.26476769706202   -0.44546860908153    7.20193946617519
H        -0.81581213982959   -1.96725383490139    6.42227268162008
C        -0.62002597443934   -6.30823943353875    8.66975499998766
C        -0.75064781969858   -5.14027162354564    9.43754674966852
C        -0.62316273195661   -5.18341906802020   10.81632139604024
H        -0.73040293223369   -4.27128280522761   11.38780482009671
C        -0.35101786313066   -6.36940599773378   11.48122002356430
C        -0.21911091668202   -7.52276364303827   10.72567959521257
H        -0.00675618320350   -8.45861310902974   11.22542151497561
C        -0.35185137668190   -7.50740809494987    9.34412855228005
C        -1.02959863674534   -3.81863065341981    8.78267859714088
H        -1.26616910050826   -3.06077448727731    9.52689195149402
H        -1.86167755841725   -3.90138075055735    8.08425240268932
H        -0.14808752037951   -3.49611153630657    8.22388169509995
C        -0.17960253955148   -6.39113272532043   12.97031224790980
H        -0.32107989835409   -7.39477838004999   13.36446003837456
H        -0.88823023121540   -5.71958633350472   13.45095546147883
H         0.82579589417227   -6.06082874666933   13.23455149802863
C        -0.17048999714384   -8.79599461811729    8.59613588832087
H        -0.06043672540786   -9.62853337893879    9.28760034506143
H         0.71979332823812   -8.74652245169361    7.97244307175271
H        -1.02047192046615   -8.98768773723649    7.94584182617036
C        -1.53952251046085   -7.29347280353158    6.19605250939785
C        -2.93790147171863   -7.36234358150328    6.27569233559834
C        -3.64774975836448   -8.21544684220263    5.44618287657194
H        -4.72623879181216   -8.25650273986241    5.52184258516890
C        -3.00192784724596   -9.01955023146881    4.51541123666156
C        -1.62135713663734   -8.95047333992692    4.43502464289127
H        -1.09812896117888   -9.56424882466393    3.71485359539527
C        -0.88963868949699   -8.09947375312474    5.25533498439598
C        -3.66946953029827   -6.49492663888358    7.26016630437153
H        -4.73547143639917   -6.71151179443371    7.25367658677765
H        -3.52679110181743   -5.44272660069913    7.01419654869363
H        -3.28178970261453   -6.65365190394703    8.26513651822647
C        -3.77964917614536   -9.95422836108838    3.63861190460020
H        -4.72355144782656   -9.50607686307318    3.33490392317460
H        -4.00454831612194  -10.87412573794578    4.17989299197350
H        -3.20617367958773  -10.21187213273930    2.75194047174704
C         0.60997354455667   -8.12564792755323    5.13618953059119
H         1.06377274251804   -7.32348001640031    5.72181493071984
H         0.90085583847372   -8.02059441124335    4.09060597807621
H         0.99089939058227   -9.08554173796676    5.49155829424067
C        -1.29913126029216   -4.40795287319623    1.94370689582670
C        -2.23851581509326   -3.80521620799976    2.78890266063743
C        -2.98708466534759   -2.72147896764873    2.34500663332715
H        -3.71029084500152   -2.27042448500066    3.01069423037007
C        -2.83090795962912   -2.20913739391296    1.06841072184670
C        -1.88491415727070   -2.79505744617314    0.23808599665134
H        -1.74432057783929   -2.40309276731313   -0.76043893953704
C        -1.12280661929455   -3.87279585264886    0.65917937692357
C        -2.50440140187196   -4.32667053857463    4.17842254183399
H        -1.98116708323603   -3.70249930939394    4.91686425739708
H        -2.17539023265940   -5.36344982411779    4.28970066503600
H        -3.57249817464604   -4.27515991955898    4.39610244927759
C        -3.68384892491082   -1.07997407507939    0.57693503305640
H        -3.11396406189536   -0.42052997492393   -0.07362235580398
H        -4.07704185669236   -0.50406897898996    1.41014015904693
H        -4.52442422966739   -1.47225707491565    0.00261689692793
C        -0.11301123892144   -4.47388092338088   -0.27689966460082
H        -0.00227407284048   -3.86314447388766   -1.17042135667497
H        -0.42638504402009   -5.47329058566838   -0.57583024890215
H         0.85452265661682   -4.56573398525429    0.21145487109145
C        -0.31696176744618   -7.01342690445017    1.65179090442000
C         0.91578004063618   -7.61531358935833    1.36772540766112
C         0.96743658404045   -8.84418614164470    0.72036918686679
H         1.93149224825714   -9.28842122587421    0.51105130970582
C        -0.18446056103870   -9.51071514038152    0.34170010957023
C        -1.40588677180408   -8.91060243237046    0.61694775676103
H        -2.31574938938042   -9.41479823529719    0.31908672280201
C        -1.48576343282980   -7.68545051180798    1.25824869783306
C         2.22127590716887   -6.94260981009771    1.69870878988723
H         2.11247181277405   -6.24445956062855    2.52802088262261
H         2.57821766850504   -6.38996084418029    0.82756871696273
H         2.97816238573141   -7.68335897468695    1.95241103047699
C        -0.13018431658394  -10.84704797225233   -0.33582151077090
H         0.88870542409400  -11.10026363407773   -0.61846536674906
H        -0.75282853146368  -10.84870607889556   -1.22914516437008
H        -0.50492532957385  -11.62365348068777    0.33153901330086
C        -2.83955120592406   -7.10118903120932    1.53660625368401
H        -2.99317085510755   -6.99639230580287    2.60888349689554
H        -3.62190449408707   -7.74217139478239    1.13682587079055
H        -2.93093686200522   -6.11439502970345    1.08808276769485
C         2.60999773101523   -4.75688666986977    5.36329796414092
H         3.00090156111791   -5.76875545820483    5.18828782933262
H         3.17914791698543   -4.02841564545215    4.77186262175442
C         2.62739986938189   -4.40521792651303    6.79353837035197
C         2.61350034148532   -5.38300531805878    7.79793582922635
H         2.63557726889945   -6.43090982611277    7.52008391141446
C         2.57169512696488   -5.03692052174664    9.13454929548757
H         2.54700640833163   -5.81119986968286    9.88756127834433
C         2.56289528998884   -3.70418428916294    9.51273128479205
H         2.52863846535429   -3.43544899641087   10.55763029232248
C         2.60371249937820   -2.72006001857769    8.53623347898296
H         2.61322906138174   -1.67732931380900    8.82309147780566
C         2.63885172402669   -3.06095201352546    7.19749826802240
H         2.68816074787677   -2.28552890008745    6.43986024910600

