57
CSD_code = GAGVOA | q = 0 | S = 0 | Stoichiometry = C12H36CrI2N2Si4 | MND = 4
C        10.69873991547267    4.00530451679015    4.39063375051350
H        10.39871812277400    3.54431643186939    3.45574974408718
H        11.69184375228866    3.63531084656808    4.62447454966908
H        10.78035576585756    5.07649786144470    4.22673131874983
C         9.44842785433964    1.71359690981238    6.20178452860962
H         8.78659694175359    1.48666224752232    7.03477501796288
H        10.43981360715059    1.35968721328228    6.46936150019859
H         9.11781896643646    1.12527232805911    5.35077839538978
C        10.34010351080999    4.36903821776552    7.39497054647510
H        10.26864130939447    5.44981367788420    7.42002975083377
H        11.39335646497072    4.11052474018707    7.39201249202749
H         9.91509892015580    3.98128266674642    8.31299276309913
C         7.22070644431849    5.10641597121877    8.29306113489199
H         7.14087668862109    4.03496643235141    8.45561891037315
H         6.36240137269029    5.57328463229093    8.76709259056261
H         8.10742456597458    5.45853493333980    8.80695383405311
C         8.20001717047951    7.18248365122005    6.11018829232888
H         9.26916418888764    7.02736749179883    6.00878761556653
H         8.04178016402078    7.86180004332276    6.94101423986104
H         7.85261864402003    7.68126776004107    5.21017737412518
C         5.42498188520927    5.81160495292978    5.92894051730651
H         5.26744351902592    5.73289710737628    4.85590916456836
H         5.09414585743769    6.79913554384587    6.23859146383916
H         4.77693583817107    5.09006113727581    6.42092823020093
N         7.92585402175846    4.24029433286315    5.48122188282157
Si        9.53603593080618    3.59098665870305    5.85296033073867
Si        7.24982658370496    5.55697949626104    6.43695699050634
Cr        6.80211069038475    3.49572586458680    4.24655420033500
I         7.92474083795123    1.86008020757446    2.56245367901559
N         5.67756022517016    4.24072690510964    3.01294837506610
Si        4.06751859927889    3.59107268325789    2.64119053266433
C         2.90484581762422    4.00543570171567    4.10352999864102
H         3.20525481917061    3.54510980804182    5.03861682096940
H         1.91193517411325    3.63474608890478    3.87000074708356
H         2.82263704044487    5.07667269090601    4.26687470590188
C         4.15514159534456    1.71367416878355    2.29236322640254
H         4.81661083182007    1.48678563162990    1.45908014105465
H         3.16367230161119    1.35966427988646    2.02524706086263
H         4.48617066809399    1.12534348920721    3.14319180885966
C         3.26348183913712    4.36901478876677    1.09914592309949
H         3.33360434124204    5.44978001900617    1.07479802897786
H         2.21061301448602    4.10927595136424    1.10127175062995
H         3.68940368179947    3.98245959121023    0.18118180645649
Si        6.35377347174515    5.55718408288167    2.05711049230882
C         6.38298541632577    5.10658688300476    0.20103677645280
H         6.46219728555368    4.03514240513652    0.03839969180086
H         7.24165810291865    5.57293424354298   -0.27276133696588
H         5.49663232389573    5.45930022984433   -0.31300400451031
C         5.40358813634177    7.18261965778916    2.38397343860161
H         4.33444762295589    7.02745211278712    2.48539379759764
H         5.56183501712557    7.86186690780933    1.55310625967436
H         5.75104097780467    7.68138496204249    3.28397745019048
C         8.17861937765217    5.81159980273619    2.56526246358570
H         8.33601902905941    5.73329487446597    3.63834153608063
H         8.50970265651632    6.79892978047293    2.25523986519042
H         8.82658800664469    5.08971880457856    2.07367107542985
I         5.67968309126354    1.86002958018241    5.93300675919319

