92
CSD_code = GAGZEU | q = 1 | S = 0 | Stoichiometry = C40H38BN8S4Zn(1+) | MND = 4
Zn        9.24687073494945    2.15135823325525    4.17281276577136
B         6.58973726049586   -0.11171887343391    5.00440593538740
S         8.32594016393921    2.48610080081327    6.40278400461050
S         9.86304405698241   -0.28571278000848    3.98253911991293
S         7.35521293545346    2.24053526275586    2.62300249566538
S        11.40352590372022    3.31395200246033    3.70077956231540
N         7.67133369353885   -0.16037879790392    6.10674876029800
N         9.21174334379073    0.24198255473716    7.61313649310650
N         7.15981944637767   -0.63284024085720    3.66737151960599
N         8.38915472344291   -1.33155323617168    1.99383870434750
N         5.44653375773675    3.32285734628427    4.18505486658470
N         6.00939648973771    1.30587334365878    4.83027458781812
N        11.83635597835683    1.71979628196565    1.55404487456813
N        12.83671854261609    1.01413427307857    3.34417355978132
C         8.40588549251858    0.80186498043047    6.68610535817358
C         8.03327196427429   -1.35065249968998    6.68250035504463
H         7.58598791050276   -2.27278184331796    6.37607363115605
C         8.98051757100016   -1.10803598491016    7.61628264443354
H         9.51690988564916   -1.77171498424869    8.26151334616540
C        10.12724984682292    0.91568005934322    8.45554254824646
C        10.11394305837962    0.64592472883551    9.81898794548103
H         9.40629501143374   -0.06410649282633   10.22045602524274
C        10.99312020972020    1.30535768247289   10.65423758492316
H        10.97855420902765    1.09586860008884   11.71337031348930
C        11.88602795632666    2.24861595335298   10.15307669699305
C        12.81207286064347    2.97263585011816   11.07708083594468
H        12.24327379756801    3.61393409710862   11.74904469357273
H        13.51237420581218    3.59179053971519   10.52361335176129
H        13.37034116233297    2.26748767537585   11.69046154411308
C        11.88930869590852    2.49880026982881    8.78695327910352
H        12.57223363243518    3.22540939514708    8.37517903476398
C         8.41688170257316   -0.76485892146959    3.22027214637670
C         6.32646299142350   -1.10781561248664    2.68836603588744
H         5.26463379916952   -1.10173447719853    2.81545564239860
C         7.07771487806355   -1.53562608216329    1.65005228346270
H         6.80101484311576   -1.98229351792529    0.71828499283952
C         9.49473211180548   -1.66396699764787    1.18136380507539
C         9.50023720946814   -1.27087815013820   -0.15044649028895
H         8.68067846218790   -0.68681860710121   -0.54140845395315
C        10.56007948939324   -1.62635255134722   -0.96349937996045
H        10.55677559408523   -1.32441262228070   -2.00033409670753
C        11.62470815654770   -2.37192990163863   -0.46779477741376
C        12.75671614756029   -2.77903514551588   -1.35592580713126
H        13.70021216133499   -2.76829406037402   -0.81512744256966
H        12.83329194621730   -2.12575239920691   -2.22126520167987
H        12.59329526703163   -3.79438824572845   -1.71685621883216
C        11.60400109041390   -2.75059310316819    0.87075599023469
H        12.41757802478343   -3.33814491978162    1.26833511493827
C         6.23851831855116    2.26538937067098    3.91912872752362
C         5.05834762460916    1.78570221696025    5.69261464674248
H         4.71003072188321    1.19770426603876    6.51510633263511
C         4.71231094716770    3.03346372335371    5.30341651934823
H         4.00451890784854    3.72579446140816    5.70863775465525
C         5.41634997754986    4.55663020091326    3.49360128307573
C         5.26568116305053    4.59313552004159    2.11429032563374
H         5.16923359854845    3.67428248949256    1.55722717349162
C         5.23910548867870    5.81369374831876    1.46807310939968
H         5.12314880769116    5.84214496144937    0.39507976253328
C         5.35506405493565    7.00581693396069    2.17606554619142
C         5.30409646742135    8.31763377908529    1.46065752635430
H         5.67168473229498    9.12227820074392    2.09145896825991
H         4.27616565852037    8.54649900282643    1.17937443399562
H         5.89660307141215    8.28244689148636    0.54906516321402
C         5.50079575288083    6.94769730674185    3.55748652557624
H         5.59571535643314    7.86148300313698    4.12445989126118
C        12.03834430444434    1.98325321328798    2.85998887168984
C        12.49527156280480    0.56957805536136    1.21479816411435
H        12.46907997326983    0.16190964261734    0.22651328320641
C        13.11160564882156    0.12675600586840    2.33489131517348
H        13.73141705819944   -0.72953340845405    2.49842361807602
C        13.27278205074885    0.88264302278006    4.68517031322022
C        13.92429849269215    1.93242051047935    5.31553230520186
H        14.08959539682751    2.85866299905957    4.78793593019122
C        14.36242197176001    1.77318833967505    6.61755622143367
H        14.88655833387201    2.58462158652278    7.09925506976075
C        14.14798265028882    0.58656235429022    7.30791013922233
C        14.63014612226096    0.40616299745957    8.71142571428121
H        15.02320376898615    1.33504212548828    9.11366464008064
H        15.41946711435392   -0.34406394792110    8.74105972557735
H        13.81903544899817    0.06151560818955    9.35037217694767
C        13.48016110239138   -0.44907923153362    6.66032172099347
H        13.30095085809114   -1.37509912314268    7.18590170372971
C        11.02931267669059    1.83138458576355    7.93547151856210
H        11.06423395697021    2.02323269525087    6.87350331565283
C        10.54993924237472   -2.40606763818358    1.69441760465139
H        10.53367218960182   -2.71779501868575    2.72662830618605
C         5.53285531615181    5.73492646336803    4.21880712047723
H         5.66649735773717    5.69601383628659    5.28963273527719
C        13.04933423471482   -0.31330072755803    5.35587841371875
H        12.52161065463483   -1.11293194483256    4.85921199572937
H         5.70492396586551   -0.83523597252775    5.32938097459910
H        11.27235952034906    2.29416801215536    0.94602883159993

