31
CSD_code = GAHFUT | q = -1 | S = 0 | Stoichiometry = C14H6CoN2O8(1-) | MND = 6
C         2.92322950774246    1.53949396582619    2.66859154445861
C         4.13699316580056    0.68830004417070    3.03976888654810
C         1.65402726330281    1.55765499369778    3.22491410473615
H         1.42928611414330    0.89810037427172    4.04841726768877
C         0.71083524513106    2.43017926627697    2.69524500380846
H        -0.28707574774108    2.46378902273313    3.10898386555543
C         1.05071097474148    3.25796346923318    1.63190263222066
H         0.34746155008179    3.94734996344640    1.19160667664581
C         2.33854911259760    3.18711744745082    1.12488074719926
C         2.97460779249012    3.96257340303459   -0.02809360592202
C         6.85685418431405    3.84540353436486    1.86852938857837
C         7.41974274691245    2.98923831476579    0.73457235116849
C         8.69853332795647    2.95966279041560    0.20113339260260
H         9.45438437030857    3.61453391530023    0.60548906296103
C         8.96063899185763    2.08118472485412   -0.84340363790911
H         9.94906075005613    2.03801641161373   -1.27848727338197
C         7.95099046126816    1.25877922683432   -1.32886777716674
H         8.11353219890990    0.56425074635942   -2.13811963441683
C         6.69538316631273    1.34107671810468   -0.74814119054291
C         5.41812607581610    0.57013274639583   -1.07875371412793
N         3.22142390122509    2.34327651999321    1.65171628094260
N         6.47253100718201    2.19079041118125    0.25058541379332
O         4.09626405342609   -0.11702272979088    3.94921582816818
O         5.14495009830367    0.93896967256006    2.28742119783033
O         2.35184947604396    4.79725338752872   -0.65480912550987
O         4.19420485822015    3.61634329231792   -0.22194867513750
O         5.61665832381200    3.59920087127509    2.08326072133515
O         7.54771966662606    4.64970284454613    2.46275928230819
O         4.43970438314465    0.92103483498063   -0.32744934490238
O         5.38865390943107   -0.26605334834947   -1.96035013980211
Co        4.84896907058341    2.26900316460808    0.95553047026818

