65
CSD_code = GAHHUV | q = 0 | S = 0 | Stoichiometry = C25H32CoIN4O2 | MND = 6
Co        5.08627619853214    3.99876521961602   15.13737612762040
I         3.87171245180605    6.08820685813556   14.25013883256922
O         5.83210693323854    3.61007270849333   13.30773435363086
O         5.99217331476046    2.43751550584059   15.80091371728097
N         2.72642682780790    2.92660646164357   16.19540504946454
N         2.63462929480087    2.32896476516581   14.13325156481347
N         6.37776168703556    5.45575547668960   17.14999846168072
N         7.63629364678643    5.79230265555045   15.44097913128100
C         4.46215095520116    4.24673474809559   16.86948660075112
C         3.30463184736323    3.60582142479529   17.27375087676840
C         2.87871537263255    3.69795050433147   18.58986834535552
H         1.97352650415188    3.21371755646628   18.92511371124957
C         3.65243376505461    4.42955231381898   19.48237118240520
H         3.32869714464459    4.50928159003417   20.50937785001468
C         4.83432260500260    5.05259843005600   19.10111506414588
H         5.41870603013630    5.60001313391277   19.82574171089129
C         5.23696339942563    4.94438579885830   17.77890013985021
C         6.53019148282774    5.14482718819244   15.83391105327976
C         7.38207721773691    6.27816643060997   17.56998101699039
H         7.45616102695879    6.64543128288553   18.57268172330058
C         8.17325813459050    6.49276411585939   16.49083325838274
H         9.06497031491876    7.07669398982056   16.38882552359551
C         3.40412548648386    2.98080747733041   15.01647931057061
C         1.55592490718480    2.24159564767786   16.04697782467388
H         0.86747005703467    2.07967085325190   16.85046135196021
C         1.49709818165191    1.86810426176116   14.74562649697200
H         0.74893051826668    1.31585252149875   14.21481906900390
C         2.88277272975239    2.23594950917548   12.71756407659007
H         2.70172652600529    1.20718045121907   12.38790863998744
H         3.93005287372032    2.48571433635246   12.54546858257146
C         1.99868196465366    3.21363638678306   11.94024892728396
H         2.15227072672884    4.21773479433013   12.33895644987093
H         0.94682907305852    2.95156567446005   12.07833646616955
C         2.33972612634809    3.21040855321920   10.45372056361822
H         3.39202116776792    3.47281491779593   10.33081687039912
H         2.19433029032022    2.20704284294885   10.04378032893752
C         1.47999984030879    4.20804160101036    9.68858296274175
H         1.74143931537771    4.20854142629584    8.63312359329325
H         0.42580105690154    3.95580942502194    9.78126732726864
H         1.62917644765898    5.20984714149981   10.08327522820476
C         8.12580244465117    5.86242839353295   14.08834110379628
H         7.65597795238572    5.05774089184113   13.52202149636606
H         9.21077735253260    5.71185787402096   14.09051941673108
C         7.77069548403490    7.20410341840617   13.44369488865902
H         6.69205330747998    7.35289115973291   13.51526887326933
H         8.26133190945111    8.01646586714656   13.98541316989534
C         8.18283366684561    7.24029314445619   11.97572735975456
H         7.68690189943433    6.42345920430785   11.44833989456614
H         9.26234148306726    7.08684726998050   11.89175674575238
C         7.79968697519741    8.56374716295753   11.32660269424757
H         8.08470480202854    8.57201351339969   10.27728198127504
H         6.72569650376299    8.71686841868276   11.39547819115087
H         8.29749513281128    9.39318123208047   11.82431410125221
C         6.57304421958263    2.65660783850275   12.96334998433136
C         6.71627211763784    1.61671653407600   15.17493779149448
C         7.03860600627605    1.65434811082744   13.81993148729518
H         7.67193927615592    0.88038455149708   13.41734001954443
C         6.98811392693402    2.59450173349460   11.50759768569263
H         6.63574612157964    1.66735770813485   11.05986041503668
H         6.56549128397198    3.43896837785605   10.96827965049023
H         8.07289809696469    2.61951478214313   11.42721134094966
C         7.28564431842865    0.47843460462503   15.99797559113053
H         6.95042397495041   -0.47473811256399   15.59462297172490
H         8.37270408259369    0.50235996119146   15.96198910176275
H         6.95555421661071    0.57110037913460   17.02957467838741

