83
CSD_code = GAHHUU | q = 0 | S = 0 | Stoichiometry = C28H33B10CoO9S2 | MND = 8
B         6.11838881597954    7.86226623769392   14.57009562678814
B         5.10348580498609    7.49548062570400   15.96512026278206
H         4.81174659392971    8.36228984634297   16.69799575642326
B         3.88016240950191    6.28438444749125   15.54483365827520
H         2.79707599514668    6.40565361754102   15.97433979290719
B         4.06090246547973    5.88296482853890   13.84567959153895
H         3.17206591782193    5.80518240492160   13.08608359125107
B         5.64192445716492    5.19547075239239   13.56458299181062
H         5.80598238624898    4.54120798504988   12.60711342263661
B         6.87871615719963    6.36536810154370   14.01361972218611
H         7.84087072189593    6.46391590569431   13.35334904138736
B         6.71174993193978    6.72351090022196   15.76832189352321
H         7.63241269451416    7.01495924991302   16.43337783432302
B         5.34623866764837    5.76425452556470   16.37735310315654
H         5.31910502160113    5.38697364049932   17.48729607173383
B         4.69697556168586    4.77819350786248   15.03173259778241
H         4.21440798170073    3.72182022764138   15.18775992626435
B         6.45103148109355    5.06978488132884   15.14575278874594
H         7.20469774287814    4.20527407501263   15.38848112065629
C         4.40729352806451    7.47329989121353   14.41930575853297
C         5.39511890025580    6.89372003160073   13.34785644395118
C         1.25631115725745    8.96728490254374   11.23947970098301
H         0.70789428582686    9.73201111301214   11.76684017764213
C         1.19187332911213    7.55980442246551   11.52284551689840
H         0.60509220139932    7.11065774278282   12.30760003216289
C         1.91981877176779    6.89128323149661   10.54035129636820
H         2.00651552829392    5.82495151162191   10.41466208839007
C         2.44559780344369    7.87586827635722    9.64458501494934
H         2.98542682210995    7.65374755041094    8.73739663091003
C         1.96153849352184    9.14261674118593   10.03453087575026
H         2.08842604179061   10.07158110550047    9.50576282473815
C         6.83816356636261    9.19792972999584   14.22178011628688
H         7.25203490450880    9.33570342112568   13.22644983589125
C         7.18737571556512   10.13232283918694   15.11543005377787
H         6.85394858974293   10.07082089076733   16.13936014461275
C         8.08205008115529   11.24409546476603   14.75624256195876
C         8.40625536164757   12.20124754451660   15.84474656500529
C         7.50235265252438   12.52160218859050   16.85618580680727
H         6.50675095369479   12.10602935304955   16.84884437053438
C         7.85767799572184   13.43074632213894   17.83595792419332
H         7.14972468003590   13.68623060063960   18.61052969169188
C         9.11346974787099   14.01717269057046   17.82752432999959
H         9.38687928046261   14.72008013953199   18.60086034299019
C        10.01360279703805   13.70974541511142   16.82000317856606
H        10.98936338901086   14.17275643995213   16.80492316559033
C         9.65809348059527   12.81388910720523   15.82995836192155
H        10.34326521767299   12.56877883861538   15.03177656611613
C         3.76279590135979   10.21265895791753   14.20606906030389
C         4.60321000112899   10.90793878136303   13.35865188144198
C         5.16498209935000   10.46209819232047   12.16521332709826
C         4.86848583178474    9.26985942414072   11.43100118853484
C         3.29956436492595   10.77321329420673   15.45413012484635
C         1.85350149204383   10.46838031263192   17.27503404644976
H         2.63068440340502   10.38358760215698   18.03819444255237
H         1.00693343297676    9.83343766000114   17.52345987324816
H         1.54528364595396   11.51322740250664   17.20166537992948
C         4.72246726024871   12.38746177724334   13.66069248896262
C         5.98115874145057   14.14478685465744   14.46348604172923
H         5.81081276826195   14.66162437689539   13.51771493567351
H         6.99509278529029   14.30847296726976   14.81733346058476
H         5.25073877752369   14.48136676215068   15.20132575351821
C         6.14591832603131   11.37263253652581   11.53223129605544
C         8.19055595417220   11.40981840192894   10.38841021014769
H         7.82665776677419   12.26988091222633    9.82272484294895
H         8.75328153748284   10.73145809958385    9.75123497832243
H         8.80408159639112   11.75685933737284   11.22188589889301
C         5.10976217558970    9.38211435130142    9.96477389429612
C         4.99600864429800   10.73000894252562    8.06855872483987
H         6.02562911556721   10.46790932870228    7.81789599177263
H         4.80046353099785   11.77776187317495    7.85524831679054
H         4.32054830566011   10.08855480409603    7.49767121397080
Co        3.18916365205003    8.28217126350902   11.58407142394453
O         8.59700394798003   11.33317741276215   13.65512784872800
O         3.74495713357772   11.77054174444593   15.97897576723183
O         2.33828485323222   10.00857206292407   16.02538152736239
O         3.82364219202697   13.12492206217371   13.35718677886042
O         5.84381871906276   12.74251123337902   14.26251365365660
O         6.15258380828411   12.57409315192539   11.60539023634323
O         7.09934410128489   10.65880051324346   10.90153394922005
O         5.51194082954422    8.45406173974384    9.29341636688349
O         4.77248830196446   10.56468609795134    9.46034296924816
S         3.12911491928943    8.63135376009813   13.82534315620588
S         5.26468299812475    7.48376273801618   11.63213077804418

