51
CSD_code = GAHHAA | q = 0 | S = 0 | Stoichiometry = C16H21B10CoOS2 | MND = 7
B         7.54793886923284   11.27979050984319    4.61300990288507
B         6.75095907251336   12.84388087594492    4.73207395356401
H         7.10337242195612   13.58216532431707    5.57262910787997
B         6.43885465272133   13.48799300252187    3.10705448642315
H         6.59249967236342   14.63532445417617    2.92098795468904
B         7.03537121031797   12.35504106070282    1.90418594135993
H         7.66732709008777   12.65537088178049    0.96313951653326
B         6.20366582324859   10.81921317548500    2.09694819163576
H         6.19119933708350   10.07372288011205    1.19212153620892
B         6.51331460195331   10.17470640325183    3.72279475777968
H         6.69972766827714    9.02387292242331    3.84590392374666
B         5.82414700443709   11.31881118573729    4.91826725814266
H         5.40945480438202   10.96454281678936    5.95669597179958
B         5.13311323846916   12.68821333086096    4.01082461953297
H         4.21733986080359   13.29546724710892    4.42326140798183
B         5.32405763798203   12.36981686920306    2.26286256078987
H         4.55857066145836   12.74372569734751    1.45597845536575
B         4.98456101991469   11.01409322074349    3.37561200386744
H         3.96328500566179   10.43712466211206    3.33815117689075
C         7.82969734569769   12.55075302339914    3.43054052871390
C         7.69941491827251   11.08491949107347    2.87794237413902
C         8.77291308967379   10.87591401753764    5.48853664134572
H         9.77152991963820   11.03350832712573    5.06651276289615
C         8.73423865528598   10.35513824520932    6.71947334827170
H         7.78928546176646   10.09871869628158    7.17856878571791
C         9.92990457953261    9.98660863399712    7.49219490322292
C        11.16075161056852   10.79604930668702    7.25746133951544
C        12.40171573832428   10.17019801628248    7.35223021339390
H        12.43252918239579    9.11142206304344    7.56369781930840
C        13.56601951716893   10.89398321939285    7.17346298545154
H        14.52483467267623   10.40046782224263    7.23797178663845
C        13.50257123367706   12.25551648345718    6.91993068869498
H        14.41290968287319   12.82236875098570    6.78828622482541
C        12.27228857098359   12.88920668457665    6.84724344648019
H        12.22111333690467   13.95378019017503    6.66986667482745
C        11.10431393843604   12.16588219706829    7.01022518315903
H        10.14934954838922   12.66862336605328    6.97249224651878
C        12.42883382564399   10.42751489581210    2.33348641338700
H        12.43158376218495    9.36138643593592    2.17582060227868
C        12.34517093192504   11.41389760627917    1.32981795334496
H        12.28725987443229   11.23313921274826    0.26830494660601
C        12.49428535823248   12.68798399391883    1.94975541729521
H        12.56848805308493   13.63294113657591    1.43589501388328
C        12.66112326634300   12.48185945000398    3.33267534032193
H        12.87868135682103   13.23835888454587    4.06808809020057
C        12.59588230726792   11.08431359157492    3.57805832361996
H        12.77549811272305   10.60494605607686    4.52788420742567
Co       10.82343966586585   11.70816948527441    2.72067163468639
O         9.92772026136985    9.06586146472506    8.28747505867397
S         9.48662542552908   13.26082843169410    3.36190390180514
S         9.22846714343282   10.35056429977235    2.27012241627107

