73
CSD_code = GAHJEG | q = 1 | S = 0 | Stoichiometry = C18H47ClFeP5Si(1+) | MND = 6
Fe        5.24155557500181    6.68950092955461   24.62417332974827
Si        1.98983407829121    5.40839557456743   25.69995766319488
P         5.01162125729116    4.91050226152100   25.82038549700080
P         3.85432003070914    7.84586460604317   25.81265270693624
P         3.65023979294903    6.13181579602699   23.25173645913675
P         7.01280232543687    7.72648643141705   25.55650785711886
P         7.00345703689991    5.97308832002651   23.39119848925515
Cl        5.53595162274564    8.31886522981894   23.21941597043177
C         3.43142934509266    4.68851467214829   26.71435297308092
H         3.50892984391543    5.21792833514391   27.66438314989869
H         3.32310895075503    3.62572450267533   26.93568332886751
C         2.12096280119554    7.28627067152019   26.00706618742400
H         1.50087037780985    7.84706274198555   25.30833053005466
H         1.80382829103183    7.55254917969833   27.01702342137370
C         2.34595780984724    5.01081928921648   23.86940512507414
H         2.69489673605827    3.98353890129502   23.77267308457294
H         1.47121690997405    5.13361332274260   23.22890619500986
C         0.29616503760374    4.71484924387503   26.25080910222221
C        -0.83012290436302    5.50024051975352   25.58548117376501
H        -1.79536858458925    5.09374983946315   25.88089884748750
H        -0.76192319789862    5.44402032416827   24.50183848425411
H        -0.80296338796460    6.54621218077758   25.88013735465942
C         0.15297886118638    4.82869582714060   27.76525275702393
H        -0.81332073373312    4.43944828046277   28.07982052014127
H         0.21595782124026    5.86466185753271   28.08864473915567
H         0.92597287375372    4.25932021073321   28.27501478164519
C         0.18228589277829    3.24668561913095   25.85135945928936
H        -0.77519107093505    2.84378436180393   26.17555538572716
H         0.96729712602713    2.65306447227223   26.31367859795290
H         0.24773815637055    3.12786670145404   24.77286240104682
C         6.13759411773451    4.46417694078840   27.19221309157940
H         5.78343054850520    3.53225758079949   27.63636791043307
H         6.14166132537166    5.24794800311803   27.94759910798375
H         7.15055364130058    4.31897670964297   26.82104027959775
C         5.09889872343840    3.34763011069380   24.86087264614651
H         4.33020326834269    2.65168282416357   25.19489850772941
H         6.07381707791423    2.88848399615661   25.01361471727149
H         4.96903718297950    3.55282761013627   23.80070995458026
C         3.60915621902148    9.59748374348050   25.38084048080756
H         2.86118339953045   10.02011705256918   26.05396504245145
H         3.27910634718344    9.69263632613360   24.34833811161997
H         4.55032704719120   10.13238960237817   25.49303818528347
C         4.37942424634370    8.04017059182078   27.55066640800399
H         3.63763602567858    8.61579331388961   28.10568637972867
H         5.33072885676734    8.57325860248282   27.55806114468414
H         4.52022028948056    7.06889848940946   28.01987260378534
C         2.61760212338923    7.45101850520049   22.53204815268514
H         1.90997335168561    6.98546884009206   21.84424397774236
H         3.24696929845814    8.14930379790363   21.98361299766351
H         2.07223509227703    7.98835399194609   23.30311900388013
C         4.14848309369004    5.32746807940786   21.69187118639171
H         3.26093257113360    4.94185927271336   21.18797569785657
H         4.85310794708862    4.51575073086512   21.86983443363883
H         4.62135801109037    6.08214988168904   21.06418847980208
C         8.13474636364181    7.20162913766252   24.18776543148865
H         9.07421576581797    6.76522283348825   24.53685540075047
H         8.33386235897854    8.03638050954189   23.50928134291235
C         8.01378057756304    7.25750062411015   27.02045533304127
H         8.92850416341227    7.85200672794216   27.01325627354810
H         8.27411437101800    6.20308362055978   26.97954156763581
H         7.46857403863461    7.45522542172093   27.94202507089387
C         7.26830001945836    9.53664050235113   25.61802904652778
H         8.34573313845497    9.71091138516210   25.59364666405480
H         6.86427174581486    9.95206111486848   26.54082809527917
H         6.80598777961753   10.02052267451064   24.76056864733654
C         7.97031952619014    4.43494534057238   23.64505626481107
H         8.96938037835243    4.57995589770450   23.23106428612241
H         7.49348525310442    3.60160052480767   23.13123253938228
H         8.04897182875619    4.20642098062722   24.70622906730974
C         7.35441996223685    6.21343006166787   21.61300545225905
H         8.43612072744686    6.32201181804529   21.51323232815826
H         6.86520715955267    7.10836136270342   21.23564161558809
H         7.03117636186883    5.34404466050808   21.04300149900936

