62
CSD_code = GAHJAD | q = 0 | S = 0 | Stoichiometry = C22H32Cl2CoN5 | MND = 6
Co        2.94523776409289    5.01187780387991    9.06847349449915
Cl        1.21484135691364    4.93667701466483   10.39973699568968
Cl        1.91039426701603    4.04413197528052    7.26271372634275
N         3.05418497574212    7.74597076599469    9.61413744438197
N         1.53844799899957    7.61054493670591    8.09571522345797
N         4.36557335618378    3.65795881202747   11.05494316388312
N         3.32728490338372    2.07820099355867   10.03246502640701
N         4.59249869910132    5.06944158883167    7.76129071775443
H         4.07226781088098    4.59315500328883    7.01260158491173
C         3.93005325858041    5.80293103232012   10.42048278619515
C         4.62111205115347    5.00805795890852   11.31634694261053
C         5.37666327231129    5.58937279185579   12.32346926918181
H         5.92424385004901    4.99076418821027   13.03617646212044
C         5.40084643181706    6.97620229619698   12.41048964292728
H         5.98609147090976    7.43909514325678   13.19096934043792
C         4.67343191222746    7.78699170929883   11.54745905888457
H         4.68622982946273    8.85980066781014   11.67023979309366
C         3.92612931158832    7.17941116211983   10.54964987447518
C         2.43995601973936    6.87681656538301    8.76183544915081
C         2.54501936427802    9.00341020708325    9.46917849465414
H         2.87654196163840    9.83972813700376   10.04925092524797
C         1.59249130540134    8.91597521910524    8.50921131058704
H         0.94852019722822    9.66858467143378    8.10234403294223
C         3.55688137884767    3.39660919718369    9.98869374601962
C         4.64232138189521    2.51182335830251   11.74125029676819
H         5.25246808665951    2.48846900690007   12.62051111322987
C         3.99056402700471    1.51641794240508   11.09204749160213
H         3.93654289745732    0.46839080109652   11.30562248919236
C         2.51754472577809    1.33196876625404    9.10394189541754
H         1.80637989031067    2.02200037830819    8.64602353157567
H         1.96832422602351    0.56553335794998    9.65722127399626
C         3.36893964181062    0.68993858489509    8.00809903030515
H         4.11457810087324    0.02545050751152    8.45562102758931
H         3.89247075690789    1.48061498712080    7.46699402775224
C         2.49882649294527   -0.08713745446434    7.02542166306725
H         1.78252493890299    0.60254844823687    6.57696281329509
H         1.93749120162053   -0.85483944861017    7.56339333216411
C         3.33327966354043   -0.74029300477175    5.93096156479785
H         2.69571339157057   -1.29023943022923    5.24339249206277
H         4.05529820760059   -1.43395133560738    6.35854439592174
H         3.87500890479390    0.01471551193306    5.36586431856908
C         0.62755607028018    7.12059376516012    7.09152927702412
H        -0.25024014579170    7.77153686084853    7.08350649414733
H         0.32453435942099    6.11036824829806    7.37478132397340
C         1.26721804379050    7.06751269347339    5.70264388017862
H         0.51643289927055    6.69098721420194    5.00681177580655
H         2.07937169485862    6.33959051347898    5.72461661135851
C         1.77934826028522    8.42119582249045    5.21806005502951
H         0.95261122620230    9.13596622155773    5.19398584972164
H         2.53087729047078    8.80730687436957    5.91260534112035
C         2.39413142601770    8.31699022521507    3.82775702130800
H         1.65534708121543    7.96525058721550    3.11165038319434
H         3.22512865100483    7.61502137643619    3.83075613136653
H         2.76188917720231    9.28531102970434    3.49566251733336
C         5.76817477536718    4.26164276724619    8.07578343120628
H         6.29338396289026    4.69235802967036    8.92916492941354
H         6.45926374996529    4.22714798021993    7.22487895212446
H         5.47202521531475    3.24489898622357    8.32199008276906
C         5.02444246705465    6.36746171138897    7.24796445896398
H         4.17004621961415    6.92668957014312    6.87588592952306
H         5.74497161160352    6.24550514227328    6.43013590235848
H         5.50176668071424    6.93824356176630    8.04548238890737

