67
CSD_code = GAHJAC | q = 0 | S = 0 | Stoichiometry = C22H27B10CoO5S2 | MND = 7
Co       10.93053795749005    5.36594047561461    1.99684539871015
S         9.63241418736669    4.78593601872489    3.60456424976813
S         9.58399054158137    6.89848762023843    1.29548873127048
O         9.09728509987022    2.23745524027658   -0.48495006701162
O        10.14265211101711    9.58463002402669    2.95315351897905
O        11.58096322864535    7.91078294056555    3.37997002306903
O         8.08261061919958    7.63853084244975    7.18042769699051
O        10.13083995772394    6.99756761529826    7.83054139103959
C         8.07304202685645    5.66430662186689    3.37850724674234
C         8.06516696399585    6.74827178840163    2.25217224819704
C        12.29753202025330    3.80113792359335    2.23547389691663
H        12.33896848635468    3.04636081655100    3.00374120234205
C        12.99672841866004    5.02539952364913    2.23739694170419
H        13.66979148164758    5.36354922723713    3.00921691437060
C        12.76374057330672    5.67277501502750    0.99319573344747
H        13.24558149862654    6.57242332414227    0.64740768861704
C        11.90560438050388    4.85649799168051    0.23388829135298
H        11.60137674543850    5.02493111032211   -0.78655689931819
C        11.59683022187281    3.70110418067196    1.00831475046034
H        11.01601071671965    2.85978466366926    0.66162625512518
C         7.74111980999592    4.23716732279691    0.96852448650836
H         8.79269786634707    4.33582887044835    0.68925693329750
C         7.13394998644627    3.17088836463239    0.43010993796014
H         6.09427975966209    2.96091486217449    0.62844499240219
C         7.87744255333425    2.22574447260239   -0.41358906041876
C         7.07864974129746    1.22034592917265   -1.16051646350295
C         7.66237503143389   -0.01202650971600   -1.44797383520034
H         8.66966313627487   -0.19889906522786   -1.10605313236974
C         6.96060594599178   -0.97382988492227   -2.14830414028743
H         7.41643815856401   -1.93038340707973   -2.35733157657851
C         5.67393271560859   -0.70660826193113   -2.58763874410571
H         5.12437165736691   -1.45531017545024   -3.13897551423524
C         5.09475069928829    0.52500342957086   -2.32676067941399
H         4.09737006909032    0.73762509959921   -2.68261359035637
C         5.78774980425404    1.48473190795323   -1.61215856325736
H         5.33599530376052    2.44861294390956   -1.43130302698927
C         9.45989583804775    7.85707927428784    4.44597728857957
C         9.95396732308130    7.85653835391657    5.69428885308687
H        10.96964240561129    8.18677884751808    5.87582443752490
C         9.25193273495735    7.48710467401335    6.93763411637849
C         9.59050589238340    6.62793490126816    9.09017583239354
H         9.18095802580650    7.50411243081649    9.59708347261746
H        10.41219707045416    6.20367609507538    9.66121019337820
H         8.79177431387040    5.89506728243416    8.95995770621594
C        10.38545621596620    8.53257947248965    3.48216208420025
C        12.56495139203990    8.65021531544209    2.66668374916863
H        12.27210527551636    8.75387422527600    1.61952810867565
H        13.49552270274053    8.09743623134332    2.75882506419814
H        12.66584919520394    9.64736883690895    3.09987416001493
B         7.12515333093304    5.28712540702609    1.93560095556450
B         6.53783430648161    4.88749681699225    3.53146640088633
H         6.52807212392715    3.75957970098166    3.85066030858148
B         7.08941943659324    6.08364102395787    4.70825965185109
H         7.41116060018914    5.67607259084599    5.75520450220970
B         8.06477143439896    7.32530991212007    3.92604725060944
B         7.10439323891733    8.09345465344574    2.66376860082935
H         7.43133655287275    9.14349760565548    2.26459553110893
B         6.53732950507422    6.87879336849157    1.48800401570081
H         6.52196991271985    7.16887012241193    0.35242820019064
B         5.47811614862394    5.71506790876386    2.34854762481978
H         4.58812912305547    5.17086592744941    1.81179605979369
B         5.44215683020124    6.18881452717840    4.06091611459844
H         4.50559394909499    5.96746816544934    4.73089980019407
B         6.39470936435935    7.68441086398117    4.27284095079987
H         6.12884380537108    8.50055887443660    5.06669133616387
B         5.45119126488125    7.44612486078780    2.77548123887530
H         4.51670121083464    8.11360286677702    2.53582315447852

