74
CSD_code = GAHKOQ | q = 0 | S = 0 | Stoichiometry = C32H36MoO5 | MND = 5
Mo       10.52081619766121   10.52142572695818    7.20098272488038
O        10.55212933602127    8.77457420340075    6.81138199733183
O        10.52078469611040   10.52185400868981    8.87238388476696
C        10.20013131290624    7.52216816235112    6.52582773344732
C        10.79872931041927    6.86160757415167    5.43965514960547
C        10.41293147517392    5.56324622951481    5.14671800775617
C         9.45681902548546    4.91973339219642    5.91249325398915
C         8.87234248429951    5.57451395067157    6.98378701293617
C         9.22758588102703    6.87421917050274    7.30748709698555
C        11.83925543931376    7.58640317498360    4.63715635120503
C         8.59363737187226    7.61524399047293    8.44704688046346
H        10.86934772304253    5.05282352473909    4.31090486399291
H         9.16738022240837    3.90715932924226    5.67539018936216
H         8.12678168406568    5.06951246483171    7.58101164676351
H        12.78574020483043    7.62343748779996    5.18072359551199
H        12.00753371239047    7.09435971668326    3.68241627517969
H        11.52713809467667    8.62027029835056    4.45614895578482
H         9.32559665783163    8.26779722704039    8.93272461292897
H         7.77976194295087    8.24661388793377    8.07953708570789
H         8.18407083243946    6.92138752402585    9.17755875487800
O        12.26766062328285   10.55212635019754    6.81174245527081
C        13.51985024741837   10.19965317462631    6.52591502036153
C        14.18048394387704   10.79834003662711    5.43980547785372
C        15.47894451504037   10.41275871973463    5.14699056900997
C        16.12265673047206    9.45694195400147    5.91298616282338
C        15.46798126189172    8.87266721061184    6.98443856990649
C        14.16809568367438    9.22759199509517    7.30789585575544
C        13.42732354393923    8.59343761173930    8.44773081231476
H        12.77092904622426    9.32364734498653    8.93045579300333
H        12.80011687598912    7.77624238474014    8.08108387457361
H        14.12138910336610    8.18839720619691    9.18047218281349
H        15.97265978195898    8.12653121501482    7.58118700793645
H        17.13510149603383    9.16730857352633    5.67566105824345
H        15.98922706650810   10.86897769370659    4.31099351700941
C        13.45554339113640   11.83862367194180    4.63714266215291
H        13.41823951387051   12.78523321665166    5.18052041477745
H        13.94761323830662   12.00676981222094    3.68236761670772
H        12.42174392712330   11.52613744825838    4.45617488634056
O        10.48957205809196   12.26803577613090    6.81027878390412
C        10.84218549455629   13.52035300399243    6.52495414235305
C        10.24394040738284   14.18137200170274    5.43887009541721
C        10.63017530342049   15.47969657036844    5.14635559568895
C        11.58635394319129   16.12274315439203    5.91243800439315
C        12.17048435440389   15.46750548476997    6.98363247618548
C        11.81480420598927   14.16781023389993    7.30692657630578
C        12.44843691215487   13.42645048713072    8.44647469487992
H        11.71660252449762   12.77309409693981    8.93124017714536
H        13.26303383396460   12.79592786267410    8.07914966108961
H        12.85699639461523   14.12014577610490    9.17771504802643
H        12.91622720129936   15.97201700182441    7.58103136797845
H        11.87613429146991   17.13527955168190    5.67562119408653
H        10.17409039329717   15.99049915723330    4.31059375392220
C         9.20328077430234   13.45720629284864    4.63598582094981
H         8.25689264584914   13.41968329605709    5.17969813332104
H         9.03483060104878   13.95009102915383    3.68171311861280
H         9.51536893336434   12.42352505847896    4.45400519244070
O         8.77410323565483   10.49040588152940    6.81138157219181
C         7.52159973372149   10.84204304704390    6.52598515662249
C         6.86111381119731   10.24323161682888    5.43986801751455
C         5.56236885200462   10.62813201262987    5.14741122444156
C         4.91834515273680   11.58347874942577    5.91371865858897
C         5.57297811453229   12.16804151545899    6.98505340419050
C         6.87309530650323   11.81376446397213    7.30819067564920
C         7.61398677256059   12.44803832641349    8.44777911290090
H         8.26852944499317   11.71709644723072    8.93205681192925
H         8.24326106998818   13.26349340238493    8.08054269746522
H         6.92005631332848   12.85543029263027    9.17936683381356
H         5.06782559213557   12.91349711188571    7.58226475921978
H         3.90560102828379   11.87245573591635    5.67682863184022
H         5.05213342786660   10.17166813274873    4.31152159955691
C         7.58652952900701    9.20348831053324    4.63691967763972
H         7.62399195451274    8.25669964951878    5.17995948411271
H         7.09472438040467    9.03552393012771    3.68198308092476
H         8.62027241262345    9.51633887392079    4.45628475436694

