118
CSD_code = GAHKIK | q = 0 | S = 0 | Stoichiometry = C48H64MoO5 | MND = 5
Mo        1.24100637493137    4.66184930593649    4.02954798016003
O         1.29783459502388    3.69789257636268    2.69339031793436
O         2.87473268234711    5.23426190051659    4.45611024967075
O         0.94450330828858    6.28706067398149    3.15029755861147
O        -0.43514110476517    4.81997936846729    4.61583481214995
O         1.52027787552857    3.32632724603998    5.31064191798250
C         3.44705218084445    6.44161767047662    4.65242974203082
C         3.48432602125436    7.29195840659152    3.53471385194251
C         3.90693989475457    8.61586544004469    3.67094451742864
C         4.37523611279963    9.05052983236804    4.91123366422474
C         4.41267961644357    8.16610560492788    5.97699363801218
C         3.95228660811240    6.85843114318118    5.89454518754451
C         3.83758584987895    9.58145603866159    2.52570637849881
C         4.84889267280449   10.46143521802489    5.09833126687142
C         3.99658003804858    5.91591747369409    7.09258273412183
C         4.71879492047400    4.62468591654150    6.68771470150154
C         2.56503112489880    5.60481573427366    7.55448639483736
C         4.75051620116062    6.51489614648748    8.28654450742306
C         1.69042810447883    6.43823795741308    2.03307158998954
C         3.04521741004109    6.77815105881944    2.20637081511991
C         3.93631911151918    6.72642484642859    1.13253923541118
C         3.44117439273322    6.42654338092559   -0.13465935902208
C         2.07393580456008    6.26956861154174   -0.30904344506241
C         1.16246275926540    6.28151700263102    0.73802637609394
C         5.40629114386392    6.95170301212006    1.33084086361575
C         4.36428423115375    6.32257964442945   -1.31263618687084
C        -0.34155436421162    6.21517012112133    0.49105226284718
C        -0.95118043451766    4.94826505099248    1.10420316701688
C        -0.97370596270431    7.46539054961639    1.12112269362833
C        -0.69073767192297    6.21784992538232   -1.00245804771149
C        -1.06550459005255    4.60153421975102    5.79001424704595
C        -1.07516006563823    3.27174921732643    6.24315224126202
C        -1.55752880024728    2.96560381306088    7.51732577348173
C        -2.11058783203751    3.98526328192018    8.29254268218913
C        -2.17099410510760    5.27364526699780    7.78672523925446
C        -1.65473020409035    5.62713819971972    6.54685832974903
C        -1.46379431197612    1.57761729504561    8.07722049580978
C        -2.65051808901869    3.69765268348915    9.66212950849120
C        -1.72753243962424    7.05891651882265    6.02690131698690
C        -2.57015631374095    7.97112186909017    6.92726694419152
C        -2.37394755322555    7.05452843691682    4.63588686325458
C        -0.31260577296346    7.65262301939041    5.95641728179885
C         0.83180661337374    2.18981212944689    5.06216798411511
C        -0.54301214128656    2.19245000767067    5.36382034330797
C        -1.37034178868416    1.15478885523680    4.92942627838479
C        -0.79414789949860    0.06809756976059    4.27520540840658
C         0.58581108553968    0.00734557881469    4.14697105219926
C         1.43658763730187    1.03269426202210    4.53696892790925
C        -2.85677741104415    1.21188524309875    5.12486904718483
C        -1.64558490790163   -1.05312663129989    3.75699127944966
C         2.95340761398694    0.87962067578465    4.48020069493477
C         3.38407099203437   -0.52332213865847    4.03429045881978
C         3.57834607623937    1.88523411723075    3.50508009038005
C         3.49862769500983    1.10754368171388    5.89811811833058
H         4.80395371817822    8.53172454267049    6.91188325725271
H         4.83780420202510    9.88150143281280    2.21447837498016
H         3.32402745300068    9.14360385119157    1.67565584857391
H         3.30379629960291   10.48033586890526    2.83128214719155
H         5.24106975987811   10.60465080943061    6.10189573372202
H         5.63235965754695   10.70428819158411    4.38190188395906
H         4.03135524334220   11.16575387277479    4.94578097147042
H         4.76699280398131    3.93899984972262    7.53153067837397
H         4.19783006116899    4.13020331893563    5.87172102424175
H         5.73370520723315    4.84968339698602    6.36450472907288
H         2.05826187808886    6.52302021430841    7.84711633798091
H         1.98383635327572    5.11977415937549    6.76552476952948
H         2.58661264270037    4.93541658132732    8.41283701660802
H         4.80300487365895    5.77395787058967    9.08180268131138
H         5.76706519075975    6.78529531892393    8.01122530037506
H         4.24094655507992    7.39059811055372    8.68163921617121
H         1.72025276965771    6.11169208137565   -1.31452807091843
H         5.96221661697625    6.08621753844172    0.97242714278354
H         5.74542538397841    7.81893965462554    0.76467364108562
H         5.64174269943148    7.10353857783261    2.37997283948376
H         5.08183754092895    5.51591594409360   -1.16624145009645
H         3.80395907868845    6.12218038128910   -2.22205650867397
H         4.92691521728536    7.24587598575066   -1.44897456123688
H        -1.99575526508396    4.85797135606864    0.80872285157452
H        -0.40950073767102    4.06843925273620    0.76318137406867
H        -0.89966576443093    4.96673672330478    2.19278417843302
H        -0.70343037098806    7.53724391478929    2.17041666895097
H        -0.62077063680182    8.36105286428217    0.61234243240422
H        -2.05823673896907    7.42348562630523    1.04077718239238
H        -0.27732108172639    7.08978602275716   -1.50410723930242
H        -0.33048683714647    5.31625146011270   -1.49127158073321
H        -1.77297137749416    6.24926776533011   -1.11366497698408
H        -2.62743052179275    6.02872933663308    8.40505386588665
H        -2.45647828562089    1.14793670797144    8.20854626311466
H        -0.88688349330538    0.93061009138168    7.42410496963674
H        -0.98421424101288    1.60447738046742    9.05473857175953
H        -1.85491595304829    3.36308475064633   10.32753541225516
H        -3.10340042715843    4.58792147920751   10.09085076878844
H        -3.40210187506155    2.91041363586043    9.62366281294254
H        -2.11833536469486    8.09007226752509    7.90924164137039
H        -2.63798387846321    8.95676910996359    6.47112729006982
H        -3.57952620197601    7.58337169306380    7.04161430137782
H        -2.44071534623711    8.06913062088119    4.24776016182147
H        -1.78942307801770    6.45774154869826    3.94025824862609
H        -3.37781428777541    6.63703494210503    4.69141939601622
H         0.13984369204351    7.66065962462872    6.94675072731408
H         0.33065166745169    7.08118564711976    5.28174270803259
H        -0.35511827920258    8.67678690796790    5.58951775246051
H         1.00073459697850   -0.88169429954757    3.70147127423224
H        -3.15618503388164    2.14862043146126    5.58533752087257
H        -3.35769522945249    1.12329808094811    4.16164315373999
H        -3.19734373578990    0.38716677738710    5.75059368176234
H        -2.33760172265797   -0.68893346957597    2.99838180458049
H        -1.02811370767110   -1.82965447860872    3.31327829498517
H        -2.23599381021833   -1.49621268004296    4.55867583245704
H         2.96406409850554   -1.29060816044042    4.68061952462201
H         3.08842475556622   -0.71652779001305    3.00623616630119
H         4.46861718709171   -0.59554733542291    4.08988383091532
H         4.64024252295617    1.67466868722623    3.38422865757876
H         3.09152215431117    1.81874954371087    2.53429830106211
H         3.46676662988129    2.90927203769930    3.86135263918228
H         3.13910025679096    0.32807486874252    6.56806429669939
H         4.58673830033470    1.08834641373585    5.89335942617727
H         3.16763323045723    2.06864905895892    6.28018681631109

