67
CSD_code = GAHLEJ | q = 0 | S = 0 | Stoichiometry = C18H42CoN3O3 | MND = 6
Co       -0.00103013850409    0.00027800698776    1.09161956359692
N         0.93774073450980    1.53869823070694    2.16603334690953
H         0.31168279243828    2.26347838289798    2.50850205976475
H         1.51206380665415    1.22977251416685    2.95096999688856
O         1.60651679605731   -0.02903211833470    0.14888417904837
C         2.52090658964993    0.93362889608916    0.48761115416247
H         3.05427439821895    1.26357448706875   -0.41828590041837
H         3.28423693583650    0.53676006402315    1.20080886761650
C         1.82566148730715    2.13275045251403    1.14613596877045
H         1.16310696534063    2.57062828663719    0.39838657458035
C         2.76361473794144    3.17019941290003    1.76345934888074
H         2.16296671897288    3.92997155983780    2.27576978316507
H         3.38754289197965    2.67602903712921    2.51741694002198
C         3.68460713308974    3.87631570719825    0.76162346566087
H         4.29245673077115    3.11897992040308    0.25785252392433
C         4.62011977023648    4.82685535274317    1.50919165080666
H         4.04830834754085    5.60055095507809    2.01838762399155
H         5.30471155595654    5.30963252380882    0.81614117785683
H         5.20845129328315    4.28995382321385    2.25055893843838
C         2.88891166227347    4.64372918317984   -0.29024512338988
H         2.29396571895459    3.96761826006987   -0.89655454366464
H         3.56425470225770    5.18671543936305   -0.94756935513332
H         2.22377648012092    5.36188066618473    0.18520036851691
N        -1.80223979423585    0.04420250502418    2.16658701391610
H        -2.11677768390081   -0.86013558981280    2.50978668459463
H        -1.82180486456359    0.69668474644386    2.95101452585652
O        -0.77956141274385    1.40761926306729    0.14984049236208
C        -2.07081859603960    1.71733441919794    0.48778153124510
H        -2.62307616562226    2.01371039988365   -0.41840345801820
H        -2.10958761802196    2.57704339024558    1.20068421155649
C        -2.76090218301770    0.51530253596464    1.14643591054885
H        -2.80815295021257   -0.27761818184420    0.39881818684642
C        -4.12858151404874    0.80791698991382    1.76364677481355
H        -4.48542297717443   -0.09205978834731    2.27668796443608
H        -4.01348614625891    1.59612640517960    2.51692512464371
C        -5.20098878104481    1.25051681597194    0.76134076748012
H        -4.84995014448526    2.15548738534585    0.25673698836311
C        -6.49220451402530    1.58483621954180    1.50872169121224
H        -6.87552593935433    0.70285587777725    2.01862013725999
H        -7.25297842305766    1.93508645295907    0.81547564693642
H        -6.32210671286767    2.36353669249833    2.24947689058175
C        -5.46690941076929    0.17660080316328   -0.28960694442737
H        -4.58371973006463   -0.00055800650627   -0.89563546407598
H        -6.27491838964311    0.48886449943396   -0.94733757739177
H        -5.75574734426394   -0.75825483169267    0.18662016142084
N         0.86285121851026   -1.58100345471917    2.16628538280476
H         1.80335007660066   -1.40129841947589    2.50936834072465
H         0.30761116248021   -1.92388200990786    2.95086391897808
O        -0.83084186284147   -1.37811185709945    0.15085539187624
C        -0.45264665739017   -2.65103852704486    0.48854201425156
H        -0.43349900788017   -3.27746996127769   -0.41767583705434
H        -1.17715196853238   -3.11462599138572    1.20199363092573
C         0.93378166839996   -2.64699758254091    1.14640218158680
H         1.64362913010532   -2.29158340370718    0.39829178490238
C         1.36460122339959   -3.97770665290252    1.76343972077424
H         2.32245440580074   -3.83646191124150    2.27628087452455
H         0.62464618948518   -4.27230060342862    2.51685899435284
C         1.51784585451331   -5.12778111041828    0.76125454919868
H         0.55851872961225   -5.27651491558420    0.25693767953475
C         1.87439158707253   -6.41328619977327    1.50819581233966
H         2.82992550848946   -6.30389561067706    2.01788662519585
H         1.95163533454137   -7.24713078368951    0.81477817795900
H         1.11524056002126   -6.65566419271901    2.24910576814142
C         2.58032548283357   -4.82068683916418   -0.29006265935926
H         2.29182179947116   -3.96718959354636   -0.89586221103963
H         2.71388546895633   -5.67642564735528   -0.94798743570893
H         3.53443728087488   -4.60331277962038    0.18593142493323

