66
CSD_code = GAHNIP | q = 0 | S = 0 | Stoichiometry = C29H28N6NiO2 | MND = 4
Ni        7.21600043825472    0.68734210217583    3.07244098216358
O         2.96063800998796    1.60882952516358    6.93912213678593
O         6.20648717375627   -1.62024785462933   -0.29063669560636
N         7.71596367644669    2.37433798467107    3.47740730466818
N         5.54243911014012    2.48322438681183    4.22563006079554
N         5.52328031013956    1.28262583158710    3.74208208289955
N         8.87761110501991    0.49975595342089    2.39323727040184
N         8.07292626201095   -1.60132955577031    1.90315195292646
N         7.06634689672130   -1.18260142433536    2.60960659628428
C        10.06730582916710    2.66532417229294    2.70506304728745
C        11.22902957669774    2.70902022951447    3.72730033125650
H        12.14870296185890    2.40851179760971    3.22220165804251
H        11.35258381587090    3.73727980727703    4.07135096284348
C        10.98026290581496    1.79674347459912    4.92199718122234
H        10.07327376092818    2.08975017226486    5.44682084060033
H        11.81379317065509    1.85387537983046    5.61803996241240
H        10.87059281369616    0.76291158018789    4.60105035787005
C        10.38134757987403    3.61974778635846    1.52876946632281
H        10.51913428874964    4.62775560934373    1.92374779184000
H        11.31945955765324    3.30865506688997    1.06629100406735
C         9.27304103377713    3.62795826000256    0.48296009314144
H         9.11953577206768    2.63067638916930    0.07604708825536
H         9.53339452814148    4.29608899254413   -0.33449988719976
H         8.33543133315817    3.96731853490136    0.91818258802077
C         8.80296917154562    3.12997418733826    3.38048831472548
C         8.52852474054355    4.38486792027850    3.98118124379672
H         9.21580155653079    5.20501221964181    4.05945117003093
C         7.22646408826635    4.36489428530320    4.43447211253966
H         6.69193623996845    5.14730438871757    4.93492619992902
C         6.71558741660050    3.08889741174983    4.10819550172605
C         4.29139582316651    0.62720461728861    3.75640598749804
C         3.45470323159563    0.58842612967866    4.88193505356592
C         2.21730579025014   -0.04425876447016    4.76808231594909
H         1.57637477400548   -0.05818965082022    5.63728405532037
C         1.82360791476840   -0.64906074560376    3.59126069317206
H         0.86551686762020   -1.14242445952446    3.53206999427329
C         2.66140116871562   -0.61680997367236    2.48532746378708
H         2.36043807784694   -1.08046070284201    1.55827016988369
C         3.88130053768133    0.01961395709249    2.56686331026596
H         4.53582724154844    0.07512904649203    1.70568996495261
C         3.80896756239908    1.13004656164151    6.22197475441983
C         5.23435575753098    0.96752400348884    6.69863052720114
H         5.70723743454844    1.94791614773840    6.73179312056641
H         5.82360760343273    0.31089205196011    6.06294523501398
H         5.21362822939206    0.58054605595987    7.71611666200993
C         9.94246241452672    1.26020676414463    2.17571838837705
C        10.87467492197282    0.51481477879547    1.40799503572482
H        11.83687907470769    0.86085615292796    1.08287117157607
C        10.32791536299661   -0.72602495219572    1.16337107465021
H        10.75687238043287   -1.53475609971953    0.60624710634583
C         9.05780665244013   -0.72552095281400    1.78397170321350
C         6.02781557363276   -2.10388850562568    2.72283731713023
C         5.67010607540451   -2.90103905644827    1.62541317255298
C         4.64210399931055   -3.82131062960122    1.76605223051196
H         4.34049408656968   -4.41617650970031    0.91611667253765
C         3.97785026671353   -3.95746564674230    2.97308512891932
H         3.17190235305006   -4.66941279280606    3.06449575256983
C         4.34656540870967   -3.18224343751412    4.06206277784299
H         3.83665872163632   -3.29646561190938    5.00642275585102
C         5.36699685186529   -2.26263964681210    3.94001541950441
H         5.67865238156156   -1.66326575428681    4.78336110022447
C         6.33005022969079   -2.66437284717960    0.30293106115300
C         7.10875520230841   -3.83918441800322   -0.22565929699814
H         7.47237880070680   -3.62892367356266   -1.22781031032268
H         6.48487517582236   -4.72990234385452   -0.23203836256100
H         7.95095092739477   -4.02118370641287    0.43861207326356

