92
CSD_code = GAHQUB | q = 1 | S = 0 | Stoichiometry = C32H54O2OsP3(1+) | MND = 6
Os       11.59121721930833    1.43632581365356    3.08979926190619
P        11.09121710457453    2.66618277268956    5.07862891199966
P        10.68641493574925    3.30986477013745    1.70985750558987
P        12.35110113058239   -0.69361458447296    4.11996162776792
O        11.59024351211432   -0.12493485028280    0.49543215885186
O        14.42395811926481    2.54047807431023    2.90421821544375
C        11.63862313732221    0.47180660786276    1.47523128755646
C        13.35761629290226    2.12656654303639    2.98895272670113
C        13.47100347051458   -1.67962164359060    2.97767506428767
C        14.59372171861560   -0.86059738888075    2.34378314725488
C        14.04458883241347   -2.95832719199661    3.58445969929599
C        13.16628368444994   -0.52122974633786    5.79988204877143
C        13.19478829670715   -1.75736074227541    6.69663652141141
C        14.57183841277824    0.06311944620194    5.67072867687790
C        10.99079197354170   -1.93272735615629    4.43539122861227
C         9.95168693248531   -1.36490324999015    5.39663366496989
C        10.31088209033454   -2.38041757869425    3.14411675424252
C         8.85205293779415    3.19038361664229    1.37353829532610
C         8.05223032261515    3.23536181019343    2.67309227579039
C         8.49862570927761    1.92754539799071    0.59234936804321
C        10.86562769184036    5.02893995566251    2.44554348337199
C         9.96156641846665    6.12792210675800    1.89027439252165
C        12.32174907850229    5.48760676332792    2.42967645254369
C        11.38113020312017    3.29892195409983   -0.03356851761851
C        12.90100027923662    3.15779507551259   -0.09036987894558
C        10.93722823770423    4.46292444048027   -0.91649185082688
C        10.61969765476982    1.95187153128550    6.69079232301720
C        11.53178260289516    1.84586994067260    7.73676629058456
C        11.13390424946759    1.30552560428335    8.94680271873534
C         9.82876430835565    0.87435239715857    9.12127129307937
C         8.91433420301967    0.99411007742933    8.08690901390795
C         9.30615296879260    1.53085588485416    6.87451090905587
C        12.09405164965120    4.07481751325114    5.64644908821969
C        13.47496702843756    3.95645628753837    5.75681986269442
C        14.23128422452449    5.01912268697090    6.21769196342158
C        13.61183175982972    6.20638608105260    6.57086447341526
C        12.23398590866455    6.32546638787113    6.47688533324110
C        11.47490535258989    5.26407643406434    6.02125787074119
H        10.10952433367879    0.91218453221687    3.25885311577997
H         9.89451637514773    3.35531234010079    4.92345690776579
H        12.78474708952806   -1.96139248846767    2.16740004477783
H        15.10439196938878   -1.47358445903014    1.60278250169999
H        14.20336279980826    0.01707671807591    1.83054091078611
H        15.33078167905314   -0.54082440683321    3.07453095006039
H        14.48746546943838   -3.55531706449940    2.78883938450829
H        14.83095915388276   -2.73582682757514    4.30046864744756
H        13.28334383095436   -3.56647236451086    4.06519132839038
H        12.53060936737589    0.22975816671721    6.29056438621077
H        13.67242856517417   -1.48255166087799    7.63640077636143
H        12.19879517061404   -2.11985074343742    6.93270197201286
H        13.76934640576827   -2.56719190256265    6.25937534613890
H        14.89602745964963    0.46448500175138    6.62985634013487
H        15.28591713106897   -0.70142151368316    5.37582814892104
H        14.60290435713627    0.86586300510722    4.93665969069465
H        11.47316768924482   -2.79808977676196    4.90354954026217
H         9.22907001058735   -2.13611870718899    5.65594409440375
H        10.39918320756007   -0.99567362843149    6.31652283782753
H         9.41687393704958   -0.54524524432335    4.92341926984064
H         9.43388055474501   -2.97641526858019    3.38860297073286
H         9.98074578059575   -1.51848808816363    2.56547396869940
H        10.96207332950263   -2.99264801281245    2.52601875333983
H         8.59507800251206    4.06602614295492    0.76685317761676
H         6.98732117155446    3.22424165369378    2.44864418225369
H         8.27730736237098    2.35987757726101    3.27965622221302
H         8.26295362332446    4.13148464247910    3.25334406482424
H         7.41636914944481    1.82609261573271    0.54153885270444
H         8.87368062690633    1.95743874363406   -0.42710055545636
H         8.89647097793990    1.04380245573805    1.08972026947550
H        10.58544072312175    4.87310998376033    3.49751190300888
H        10.14907493452660    7.03797498362591    2.45890784408884
H        10.17224614153213    6.34298607407388    0.84844133211811
H         8.90666031623773    5.89080276533596    1.99201838383246
H        12.44890148178037    6.33027984913902    3.10764923546403
H        12.99205644980675    4.69641971503288    2.75904055623562
H        12.61880492342686    5.81191369047934    1.43594526376550
H        10.95712353289734    2.37309922589073   -0.44609229847790
H        13.20903226717891    3.05562512870999   -1.12953944386107
H        13.40848627654981    4.02381549484669    0.32405095411811
H        13.23653019280951    2.26826022999376    0.43996833418475
H        11.19612560702744    4.23666483914077   -1.94959376050995
H         9.86412345894725    4.62859732236672   -0.87626983561484
H        11.45345570064670    5.37977070622085   -0.64520701627432
H        12.54469641776823    2.20611118939006    7.61267967557423
H        11.84286726645247    1.22793701258625    9.75715179722512
H         9.52190299813410    0.45529819746188   10.06695529803479
H         7.89332713330218    0.67347721311686    8.22658420048135
H         8.59402983522028    1.62913065602614    6.06600748818969
H        13.95897840993070    3.02781120674358    5.48591002772949
H        15.30325548555663    4.92114153420235    6.29895182085767
H        14.20180876280787    7.03802135080379    6.92366684801523
H        11.74993085915376    7.24730259804023    6.76192988020554
H        10.39789459099756    5.35469595302370    5.96013974918403

