60
CSD_code = GAHQIR | q = 0 | S = 0 | Stoichiometry = C27H23N7ORuS | MND = 6
Ru       10.28483712362908    8.12955242475118   13.77891084120360
N        11.12741426368725    9.27902451062021   15.23229990597077
N         8.97747816868601    7.92769469908476   15.29089024440411
N        10.97691050730971   10.06803125948891   17.35440653013777
N         8.80576943574491    7.02219488985156   12.92473507601494
N         6.78725331036754    6.02090990373499   13.19293461541215
N        11.59328564710854    8.22126859662266   12.39096836538029
H        11.64300180654226    8.93874146784050   11.66081257093458
N        11.39393026090216    6.53271260995264   14.22167112878998
H        11.29157439062450    5.85397587073342   14.97844799596104
C         9.23895484160911    8.50950152130406   16.47095284961513
C        10.45105632128284    9.28917525919862   16.42358007822087
C        12.07494975173686   10.60882441196955   16.75917363834216
C        13.20296113465190   10.52254142034878   14.57353295439688
H        13.26119875878013   10.14646158695973   13.56151040909010
C         8.37081524906214    8.35946836085409   17.55088973242365
H         8.60838227404224    8.84293295512450   18.48347199311547
C        14.03633539595163   11.89107332648633   16.39413745592098
H        14.78784098440190   12.58520295398819   16.74161108921708
C        14.12470797275959   11.40855945797310   15.08023486740185
H        14.93867912250863   11.74604266673377   14.45516280523018
C        13.02671273162685   11.50479142531786   17.24410580564613
H        12.96124901133715   11.87261625088183   18.25591659653838
C        12.17255524573934   10.12046597148309   15.41854437516930
C         7.18449494794582    5.87349446280367   11.89957428643226
C         7.87149802764741    7.18975776127787   15.11368235741193
C         8.45429938872091    6.50686461258149   11.72214876756244
C         7.77100889437346    6.69779168534234   13.76167616374645
C         6.96257276234083    7.00086823007035   16.15304382498604
H         6.08243183594025    6.40584443057405   15.97629365075968
C         6.56250789779880    5.24813896436768   10.81997360111011
H         5.60689567546907    4.76486657826619   10.94844240157580
C         9.09356209797447    6.51681234055568   10.48566856704886
H        10.05404291367237    6.99981701860527   10.36802161991255
C         7.22932414788971    7.59082527555096   17.37953563115701
H         6.54294901875523    7.45601695767420   18.20189953655258
C         7.20821454466041    5.27054836164931    9.60597341975646
H         6.75000045477981    4.79513450342399    8.75084804421750
C         8.45379913259726    5.89319748900939    9.43989005975585
H         8.91660965209154    5.88004730449503    8.46377582635281
C        12.42134202059799    6.32113259387438   13.41259063371352
C        12.54058015217287    7.29514964998001   12.35502409953060
C        13.36812322905181    5.27435852174616   13.49136986909651
H        13.28215570710423    4.54260937641563   14.28168085260851
C        14.49071414503729    6.15914787275783   11.53558598819491
H        15.30110603832958    6.06667708782242   10.82886143244054
C        13.59701930507986    7.18662375428570   11.42260729460640
H        13.67983187605673    7.92051632654517   10.63359861501730
S         9.24818349494588   10.01965550228724   12.98609273903866
O         9.99191024931013   10.58059419199517   11.87020144404993
C        14.37439993018773    5.20601768782695   12.56866604614607
H        15.10051824104982    4.40898026576089   12.62406702778939
C         7.51934025569120    9.85990227237657   12.42562249484044
H         7.17722450996143   10.82331335373616   12.06520300729650
H         6.91776032397164    9.51083368291759   13.25864039641747
H         7.49852189346020    9.13385218906235   11.61845141606183
C         8.97150042294358   11.38197116184286   14.16736076027197
H         9.93800159523282   11.68881950135123   14.55572576515388
H         8.34234989367862   11.01497347251994   14.97206775148387
H         8.50455161339301   12.20938175734045   13.64523268338534

