65
CSD_code = GAHRUC | q = 0 | S = 0 | Stoichiometry = C37H25CoO2 | MND = 7
Co        3.19296887018762    2.84339016980532    3.85480881816004
C         2.52711118168461    1.85782142805637    2.57865136498826
O         2.03903881297356    1.21674071773629    1.76235864742639
C         1.62051070501782    3.41231318864007    4.35005726246174
O         0.57381948663591    3.75791628719962    4.66693007146554
C         4.80269336648600    4.24134879692261    3.94071291369008
C         4.94074954324882    5.60593821158281    3.41710424588586
C         4.47133921498516    5.92854901688714    2.14552187160689
C         4.62486234984745    7.20768746936892    1.64777123089440
C         5.24440541592243    8.18266148823335    2.41299611041367
C         5.71263751145877    7.87021375153338    3.67796277168991
C         5.56532776981326    6.59016293969532    4.17949398012362
C         5.21907210422496    3.04772740609945    3.29860328723261
C         5.93906183360458    2.94973631571885    2.02309195517221
C         5.68190250409201    1.91780355975280    1.12243467047384
C         6.39735328751977    1.81975584754763   -0.05506000779797
C         7.38071891006356    2.74858628107275   -0.35347709076770
C         7.64758560847837    3.77399176542094    0.53762589240221
C         6.93638258702391    3.87477291953717    1.71858714113832
C         5.06679503026288    1.95270536129387    4.24011296627045
C         5.56818240352331    0.58504198495100    4.04783054760143
C         4.76597378038836   -0.51329159303045    4.34822272802855
C         5.25276236385652   -1.79701778689802    4.19592957309133
C         6.54518417772425   -2.00151011651243    3.74058864126514
C         7.34990005812304   -0.91488734501562    3.44279661528234
C         6.86831522631581    0.37210994735104    3.59589937354670
C         4.55619501436361    2.47356813345363    5.45285013822838
C         4.41141951177365    1.75489875788227    6.72318336446353
C         5.44274080194079    0.93893444234559    7.18392457396774
C         5.32264369250909    0.27668604753537    8.39145896089130
C         4.17840687538511    0.42225548266490    9.15721227189317
C         3.14971107940248    1.23429946540754    8.70767848414936
C         3.26238622071767    1.89431703300028    7.49984373980327
C         4.31157849331816    3.87976326535341    5.24319460856218
C         3.96674813794165    4.85749622026043    6.28592480230135
C         4.57957030388646    4.78788765015051    7.53524237507086
C         4.29220602324393    5.72765029571499    8.50770410459477
C         3.39653639593870    6.75071298168625    8.24759686528989
C         2.79171973535515    6.83391582760757    7.00416540996987
C         3.07451905579690    5.89650387421735    6.02976482813834
H         3.97328039365915    5.16817406251460    1.55815208485625
H         4.25519911740061    7.44743574811369    0.66158700016557
H         5.36020592450697    9.18371437389895    2.02470210992189
H         6.19746298634458    8.62627966666298    4.27818008717816
H         5.94251078017201    6.34713664751884    5.16256952726625
H         4.91007407660678    1.19495023187105    1.34506903663926
H         6.18444973468506    1.01594847167107   -0.74433789281582
H         7.93722947469767    2.67261111534396   -1.27579037977028
H         8.41664911526304    4.49924065557275    0.31510282586683
H         7.16157413399069    4.66810280579119    2.41630154470278
H         3.75287249008243   -0.34941346164761    4.69164366687092
H         4.62094321102453   -2.64134484108080    4.42932453821508
H         6.92395951736565   -3.00540916664058    3.61812037086185
H         8.35938741320590   -1.06862993749211    3.09037890810598
H         7.50395639120930    1.21738522178277    3.37440974516227
H         6.34327632056763    0.83242550999176    6.59644007082272
H         6.12912814757109   -0.35367196864182    8.73673932355035
H         4.08755165054551   -0.09599143713971   10.10027547694686
H         2.25323276139598    1.34955180238397    9.29905030277228
H         2.45196819917232    2.51491064297331    7.14212861702791
H         5.29145818934947    4.00163920761109    7.74018497456708
H         4.77347465215784    5.66056782828505    9.47248009390354
H         3.17240257870812    7.48204583874859    9.00989159618510
H         2.09493910634785    7.63160121539092    6.79289640280469
H         2.59717818893567    5.96198227628461    5.06169985911858

