165
CSD_code = GAJFII | q = 0 | S = 0 | Stoichiometry = C113H50AuP | MND = 2
Au       18.33805655843254    8.32285189833003   11.94561331589170
P        20.41577458334944    7.44212719368480   12.08862310329331
C        16.44299023267092    9.24738899202851   11.74123332362836
C        15.62736412523913    8.38065729924725   12.58027706579849
C        15.57869679265011    8.91605275927720   13.84791736855870
C        16.25134653901281   10.15585455299889   13.85127922977202
C        16.71573994877834   10.41083572105056   12.58001738387429
C        17.04237307532449   11.77741263729993   12.06437435612798
C        16.25803975435355   11.94262425304707   10.76516079797369
C        15.84127563849377   10.90171742712959    9.98228711298037
C        16.10205135668005    9.42837967687569   10.26176591274019
C        14.72638523137512    8.83724531373980    9.98700892100525
C        14.09039471282343    7.91731448577142   10.77201819759541
C        14.66201989237937    7.35563271604639   12.07032125683502
C        13.42446199797440    7.43196523835081   12.97544749867686
C        13.43495196796171    7.91074300301378   14.25898790819135
C        14.68518364164824    8.44357677377351   14.94938589430166
C        14.14315720978142    9.70795422935672   15.61679048153802
C        14.79137728137759   10.91640030100256   15.61376633139309
C        16.14300705047077   11.16955335456578   14.95586428510034
C        15.89777342571642   12.49693963940692   14.25167862094364
C        16.29522470626863   12.77041196644432   12.96847972972026
C        15.49704616279421   13.63875997933674   12.16535278400237
C        15.47570212174636   13.13572167584616   10.81823774406976
C        14.33492299466555   13.29250633706730   10.03706624777240
C        13.90712426419431   12.20830871042354    9.21056685989510
C        14.64349097182482   11.02907323252360    9.21780311449858
C        13.96154174555620    9.76340383438886    9.21942909581028
C        12.57174046481464    9.72598315512395    9.21311554290334
C        11.90408103044995    8.77247171570922   10.04198321743313
C        12.66428494037990    7.90969638105978   10.82524727310562
C        12.25857583694390    7.61548983889873   12.17332125852461
C        11.10758325821392    8.21045979814697   12.68475189029537
C        11.12061271283988    8.70630091249478   14.02425764990327
C        12.28581044687472    8.58124716625852   14.77462307302706
C        12.71826570609051    9.67467160607220   15.60522605788954
C        11.96726269861435   10.84594017838911   15.65431896307881
C        12.64335801407582   12.10432897886155   15.65282928697890
C        14.03405028429950   12.12310923452080   15.60162665622595
C        14.70676292601910   13.08596479911188   14.76891305197035
C        13.95988440095436   13.98779323196263   14.01803251315812
C        14.36579180729710   14.27008678208400   12.67779766371998
C        13.17815130135926   14.41522674118586   11.87366960886507
C        13.16253684979956   13.93614254835454   10.57292179070344
C        12.00519537685990   13.23814732001979   10.07400188132407
C        12.46654514231072   12.17002538945269    9.22548924170653
C        11.80918679598832   10.94845662469544    9.22667164464866
C        10.66437222117238   10.74525184607384   10.07650789294555
C        10.72085460763987    9.39575551682988   10.57774599322597
C        10.33115389551195    9.11999324648725   11.87940573675575
C         9.86671369294499   10.18466161487076   12.73126059297525
C        10.35424111274985    9.92666624104104   14.06139939107775
C        10.76976654064398   10.97862275149065   14.86350884746073
C        10.71255051329329   12.33021088684664   14.36889166380224
C        11.87175741901149   13.02883966254185   14.86118866030280
C        12.51934301459409   13.95448825604185   14.05687512970924
C        12.03446468977670   14.21691414964399   12.72687286708428
C        10.91608482813019   13.54256529375514   12.24834334248393
C        10.90109708481235   13.04361660330540   10.89690849294446
C        10.21862198858246   11.77462903855734   10.89830951320322
C         9.81190521352685   11.48871822022559   12.25052036709591
C        10.24260222765748   12.58175357193414   13.08454828809705
C        21.51627983874596    7.89477900294936   10.72115678068407
C        21.46151587740804    9.22053021127246   10.30146968902507
H        20.76087029898069    9.89683955083022   10.77233058278611
C        22.29877156414550    9.66130685350107    9.29486568064291
H        22.26018544603906   10.69326164158125    8.97978030191893
C        23.17819243141664    8.77694224797554    8.69041820791189
H        23.83008713742363    9.11817508618737    7.89982927772527
C        23.22046894818542    7.45222029490814    9.09454336109814
H        23.90242128139019    6.76368900105797    8.61742857053700
C        22.39452369266780    7.00614084446514   10.11098883141286
H        22.43011312624222    5.97330353109955   10.42994255920683
C        21.33094626174703    7.97754002737393   13.55887023285067
C        20.58711142821594    8.31351699844966   14.68594690799168
H        19.50763393065657    8.24486035562159   14.64824930703050
C        21.22286233840931    8.73897275397973   15.83668788898737
H        20.63797464799061    9.00280870140469   16.70370029057437
C        22.60461985478148    8.84132152886436   15.86042613277035
H        23.10405427006389    9.18066036986968   16.75555193624936
C        23.34909640116107    8.51443486346103   14.73733821001105
H        24.42575499089036    8.59925034288255   14.75894465493975
C        22.71828685965342    8.08223876861192   13.58466308721703
H        23.29463223138684    7.83089419887383   12.70461421540132
C        20.47523129801740    5.63312400991517   12.11324792105262
C        19.79488899978519    4.99487413845508   11.07731885193687
H        19.28583641016490    5.59659136438010   10.33450372049030
C        19.78037730193388    3.61646513813448   11.01013874966046
H        19.26243288998306    3.12106235546421   10.20333480810466
C        20.42416408487417    2.87092180188684   11.98702847817384
H        20.41360017987867    1.79219114142304   11.93573596501842
C        21.07600492840465    3.50437421457669   13.03218038109003
H        21.56665790592632    2.91977865334514   13.79653427606704
C        21.10499968077801    4.88697938667756   13.10134645916123
H        21.61464649969817    5.38517365653588   13.91468525152605
C        17.16183793186087    8.83062561042721    9.36088848883856
C        18.17109579467461    9.61490054432836    8.81679481336238
H        18.18583335717894   10.67782957709342    9.00990080571746
C        19.16235959220444    9.04473322531075    8.03822894321772
H        19.93722213552613    9.67205408958108    7.62134355587383
C        19.17330236985144    7.68224835613337    7.77888799116281
C        18.14958617876940    6.90309112979588    8.30806296944501
H        18.12555848409303    5.84243311223805    8.09627817739701
C        17.15584386954406    7.46506481900124    9.08460798752783
H        16.37170236353884    6.84036497133580    9.48735312099396
C        20.24457177720680    7.05523262948584    6.93928832064061
H        20.69468554323357    6.21147186459445    7.46144000447792
H        21.02536349860007    7.77464949194933    6.70562026405586
H        19.82362954132028    6.68400248573505    6.00505451052996
C        15.21410135172883    5.95420519807248   11.94594188837426
C        14.70833097601028    5.07639836956521   10.99456990352152
H        13.92069274564031    5.40082461644476   10.32909389477331
C        15.20262066118738    3.79015982725125   10.89365102881367
H        14.79549668641005    3.11927672675583   10.14985519680257
C        16.21016812988983    3.34183480968013   11.73957120001052
C        16.71610866548421    4.22309328697136   12.68445783720811
H        17.50093648815081    3.89953845419265   13.35474285199136
C        16.22464156280656    5.51131546610595   12.78780807927110
H        16.62057752235619    6.17411064085224   13.54210222798541
C        16.70559269013465    1.93002251283939   11.64587789930610
H        16.91345872369922    1.65904488298252   10.61188743606892
H        15.94552187836495    1.24373140834715   12.02001981776183
H        17.60836092555458    1.79631487064643   12.23682406459768
C        15.32523460852626    7.47327059028684   15.91203604635225
C        16.69606990011210    7.25907997445829   15.90298253926608
H        17.31008886803783    7.79847424615609   15.19433556275467
C        17.28075772570204    6.37994653443184   16.79616440494465
H        18.35194798868384    6.22918835716479   16.76996173471760
C        16.50946303987262    5.69452053881914   17.72321187753250
C        15.13623766814447    5.91502347864847   17.73273538801108
H        14.52104491529171    5.39113207742041   18.45081260349329
C        14.54948987677076    6.79120471787949   16.84107800618151
H        13.48092959800621    6.94952788020057   16.86482737100343
C        17.12859816657616    4.74479064895356   18.70404441528155
H        18.18903990095071    4.61226668474632   18.50255010924649
H        16.63914050509144    3.77305973697990   18.65520490583037
H        17.01421402286632    5.12262327396713   19.72007274152246
C        17.30401988451062   11.17730655871324   15.92121938415211
C        17.34732818946094   10.28082353988535   16.98084480959029
H        16.53614727595215    9.58503685430770   17.13039418203146
C        18.41729427306177   10.27706911103660   17.85670766864395
H        18.42728556376576    9.57082879687723   18.67599734543741
C        19.46956873875350   11.17060878234800   17.70380123199232
C        19.41766589050891   12.07207111807034   16.64803367477461
H        20.22122665930998   12.78278099865938   16.51355719138002
C        18.34887353794445   12.08128354741490   15.77223290625221
H        18.32407165606199   12.80417444425999   14.97007182245738
C        20.61934904460360   11.19037979369123   18.66759877625378
H        20.47454359516850   11.98327673673803   19.40232789117003
H        21.55591007998826   11.38584444106960   18.14770051502041
H        20.69922222754147   10.24671444920485   19.20377675286427
C        18.52367380830529   12.04794213633605   11.93821308575239
C        19.42701984121622   11.43600492102393   12.80092114114112
H        19.06647302624260   10.77855598800017   13.57822843479434
C        20.78345285779790   11.66965134735737   12.68473750105515
H        21.46753175249153   11.18437939521704   13.36849085793779
C        21.28034220909975   12.51065731294852   11.69490854675858
C        20.37628232228740   13.12141541349102   10.83698163496632
H        20.73867743493955   13.78234037844299   10.06177932939913
C        19.01546983715322   12.89922676069236   10.95854731838629
H        18.33046188785061   13.38926154646954   10.28112670449068
C        22.75583105448313   12.74542962787210   11.57424837853632
H        23.11061286388740   13.34355391772076   12.41367580454104
H        22.99419370495821   13.27435286893742   10.65454331354144
H        23.29568648808761   11.79908195532136   11.58812225490588

