76
CSD_code = GAJGUV | q = 0 | S = 0 | Stoichiometry = C30H41BClCuP2 | MND = 5
Cl        5.59007004367365    0.47821003706319    0.42347508690276
Cu        6.65832345574228    1.62516566634446    2.01251172975680
B         7.95866466621853    4.11263723086288    2.34691695270397
P         8.83950065152356    1.10306965985526    2.20074762807574
P         5.27271354426210    2.83912605500956    3.28475753757829
C         9.46844571379836    3.77593390302932    2.05568747175665
C         9.98896860822103    2.48564384760575    1.89273999659031
C        11.31946558424293    2.29869595151348    1.52796479003294
H        11.70622625408983    1.30289032116539    1.37015511030274
C        12.15536656113439    3.38405898869816    1.34784860816805
H        13.18766097488661    3.23168699158510    1.06825799602803
C        11.65989618651169    4.66618984078704    1.51874880023520
H        12.30570019256339    5.52001473983691    1.37342231595861
C        10.33242728433229    4.85440687853897    1.85441053527982
H         9.94750007510243    5.86091218450188    1.94604892615799
C         7.44904165947638    4.47341950080312    3.78943637573815
C         6.21190333351091    4.03839665858077    4.30233911980688
C         5.79046623897894    4.44787488910966    5.56163338243960
H         4.85366435358474    4.09076419769748    5.96348349636455
C         6.56616751253624    5.30438001661154    6.32296315723605
H         6.22468049420244    5.61983595581205    7.29819138316956
C         7.78593848131240    5.73897255446847    5.83457506093031
H         8.40422087694130    6.39667250769860    6.42802403807907
C         8.22011816212394    5.31735055196023    4.59098651040012
H         9.18097320585339    5.65138792384377    4.22693437970660
C         7.09648527187701    4.49157811769464    1.10267396721133
C         6.30243656102638    5.64383014338015    1.09166865279474
H         6.29024899992807    6.28163457084907    1.96683153592628
C         5.56288772491129    5.99639511046898   -0.02278901656906
H         4.96330318464716    6.89602636909918   -0.00913327816576
C         5.57656433417820    5.18962879310940   -1.14836756885262
H         4.97933534587478    5.45085421103705   -2.00974811130370
C         6.36780421159528    4.05209256956750   -1.16864017500444
H         6.38804686649091    3.42031996492972   -2.04380969193792
C         7.13439562132675    3.72575416404451   -0.06775378868009
H         7.76159027469232    2.84531307668098   -0.09767764060119
C         9.37932980466018   -0.23635654283475    1.02865270660006
H        10.44399002063087   -0.45564818800820    1.17243065875979
C         9.13815195494710    0.25321371752421   -0.39664826293067
H         9.45858135102473   -0.50080623177650   -1.11361226137166
H         9.68444978247951    1.17528757784367   -0.59801855401406
H         8.07289772152480    0.42768302724680   -0.54516171843881
C         8.54435310716973   -1.48323330305787    1.30756414885123
H         7.48737535587675   -1.24678072989697    1.18679749510090
H         8.70836419040090   -1.86240161386624    2.31522907175403
H         8.79718665059901   -2.27028235509786    0.59933203343304
C         9.40816777808734    0.49833217019904    3.88257440562070
H         8.68544464917143   -0.28274393118731    4.15515245461497
C         9.26373033254619    1.65971629182677    4.86253291175108
H         9.37684274107774    1.31243358405773    5.88806208588510
H         8.28637288287283    2.12879651922395    4.75865951714150
H        10.02212493655778    2.41650684455077    4.66953817370941
C        10.81540123911206   -0.08280019944003    3.94468777864643
H        11.55172726484045    0.66175935128387    3.65027408241927
H        10.92006449697572   -0.95906859453566    3.30985475877414
H        11.03382008666746   -0.38431222581547    4.96851266204441
C         3.89241711231679    3.90094095334851    2.59757405003927
H         4.42718438723178    4.79566224861218    2.25372345803808
C         2.82738307216698    4.33321017489021    3.59942450083587
H         2.12672870191214    5.00511584642189    3.10538263820459
H         3.26948318704709    4.86633097412645    4.43845128636749
H         2.26356371957244    3.48260454630191    3.97501727152349
C         3.28611253582869    3.22075991119173    1.37124293103262
H         2.56444350955845    2.45895041400713    1.65363128339791
H         4.06134651793916    2.74112563587420    0.77449250896793
H         2.77953958385916    3.95397259477486    0.74575221297465
C         4.47386676750445    1.70325495817978    4.52861567470586
H         3.85624375676443    2.26747977075138    5.23557673388511
C         5.58759302783595    0.98257001670029    5.28376341854289
H         5.16831159223308    0.24704621053797    5.96866928004748
H         6.19275781431304    1.68176128236155    5.85911964678362
H         6.23302963358052    0.46265948472518    4.57420358963045
C         3.61158788361543    0.69688503021612    3.76853959845668
H         4.14840541033903    0.31824588423999    2.89779160047636
H         2.68339442000829    1.14693695037285    3.42563265033966
H         3.36002850778846   -0.14703219973971    4.40926624321933

