83
CSD_code = GAJGUU | q = 0 | S = 0 | Stoichiometry = C32H36N6O8Zn | MND = 7
Zn        5.81647645282009    3.49780552764738    5.29495061618677
N         4.61413531566528    2.07015945269052    6.65737178217676
C         3.88455804045930    2.80867241493336    7.70603403814320
C         3.10802643675863    1.94611684071888    8.66906713757490
C         3.66437029331305    1.57694492266851    9.88949813656129
C         2.96672838951033    0.77024779757835   10.77166152484686
C         1.69743654003009    0.32373368775588   10.44772868494205
C         1.12515561840901    0.70106543088820    9.24492100226512
C         1.82435880473321    1.50757035953424    8.36453049599364
C         5.59964252938581    1.15907057273292    7.24072136341107
C         6.91250821754221    1.88924301281006    7.49152884119490
N         7.38790181736009    2.44206244747737    6.22745662496988
C         8.66775252931103    3.14074112204259    6.38361801458807
C         9.78054784664132    2.26177785289114    6.89925683780722
C        10.56883467674925    2.67029983529097    7.96326802215709
C        11.63369844922132    1.90459495877655    8.40748991863451
C        11.91308111123847    0.70062630829547    7.78853284179108
C        11.13189137078434    0.26314744178060    6.73335787118121
C        10.07040716473670    1.03606610510908    6.27747003403067
O         9.22250733381430    0.62660796837572    5.28299876202354
C         9.71167879781500   -0.09662791166092    4.16053693703727
N         8.30683788380655    0.41495570574820    2.26624724790219
C         9.41666660948595    0.71667445270557    2.92156277682795
C        10.24994176876090    1.76489374887297    2.54922650456752
C         9.90434058001643    2.52384596188048    1.44514694211610
C         3.69969977674435    1.38187193393183    5.75021587043703
C         4.38275868206036    1.05628696931437    4.42181811227886
N         4.93354635955000    2.27223158016918    3.82817997858284
C         3.97645633299810    2.97242553800982    2.95657739036483
C         3.45815215561564    2.11579139189909    1.82941867540287
C         2.09828390264576    1.98794756212832    1.60237013231833
C         1.61022092200079    1.20668491472349    0.56745181563849
C         2.49596587852387    0.53259305606720   -0.25040661564550
C         3.86147446594422    0.64161100132853   -0.04461367073919
C         4.35208836777637    1.43469937726587    0.98453298181555
O         5.67663680779457    1.61255983886844    1.25138566356302
C         6.64316827859445    0.82584464293782    0.57715851367808
C         7.96883056967911    1.15406254059359    1.21906428371167
C         8.73876753533026    2.21595577710680    0.76442968219652
N         7.40355307812237    4.25650996186251    3.25149343127949
O         7.59804785475604    3.06424811772665    3.49707787323834
O         6.57530595685002    4.85928181067412    3.97617785871276
O         7.97432081689417    4.82933058043358    2.36191617453379
N         4.89239931582764    5.46885320097880    6.23620477692172
O         4.23256435949579    4.78587170507779    5.43525534321583
O         5.92831510658425    4.95676465362332    6.69927500673793
O         4.51827683645696    6.54538622302134    6.59528072670875
H         3.20203076739682    3.49632458451166    7.20381925242131
H         4.61645706847306    3.39869480030731    8.26019726186659
H         4.64595332011057    1.94004564875703   10.16141185884207
H         3.41355360445691    0.49482299951023   11.71554760711881
H         1.15137731549665   -0.30478387007430   11.13509732410913
H         0.12776996624238    0.37151578657539    8.99392011237071
H         1.35867147705241    1.81264898376500    7.43901057768029
H         5.79518493520300    0.34973895073365    6.53563181691452
H         5.22625876807915    0.71040580521596    8.16886269825873
H         7.64131453939968    1.19391222058994    7.92691489540954
H         6.76579016917635    2.72117983504128    8.18367128317809
H         7.59083958185101    1.66809903272614    5.59280685612146
H         8.51723731660692    3.99808426981833    7.04224524078987
H         8.95491996392088    3.50902148168669    5.39613174023049
H        10.34947691578304    3.61377889555623    8.44081998860111
H        12.23902758470613    2.24590922638154    9.23279125455645
H        12.73568567824756    0.09002296240272    8.12906468076047
H        11.34438750471204   -0.69048096714893    6.27280379728298
H         9.17579555502051   -1.05034787895692    4.11212766696647
H        10.78659192182264   -0.27683308468759    4.24327748128807
H        11.13696572559483    1.98778399172887    3.12348185374969
H        10.51424697809635    3.35791253309038    1.13444978053736
H         2.87256304146953    2.06142881937500    5.54342724655497
H         3.29907364176113    0.46184282271145    6.19695057141412
H         3.65093723662017    0.58546305463486    3.75431597392219
H         5.20039361251881    0.34929485756886    4.57529557413546
H         5.70872576723062    2.00528341013711    3.21934593849889
H         4.49082561704039    3.84458238673628    2.54576485047597
H         3.14975092992166    3.34175964646212    3.56403706854046
H         1.41082033611616    2.51523005036111    2.24756310627819
H         0.54673248951601    1.12438708240698    0.40562015540947
H         2.13077711914076   -0.08340364284834   -1.05826148971010
H         4.53809828228971    0.11239230379686   -0.69690478027356
H         6.66142541251718    1.07272344491095   -0.49197221930812
H         6.42148889146333   -0.24035868339822    0.71124530688418
H         8.41853302634184    2.80570984433061   -0.07925929576430

