80
CSD_code = GAJGOP | q = 0 | S = 0 | Stoichiometry = C42H33BClCuP2 | MND = 5
Cu        4.44425650113600    7.71465655277370    4.99193297632579
Cl        5.95366437581762    9.29310162414962    4.92247623726988
P         3.85296537318782    6.55568173062372    3.16904025739692
P         3.69145493573400    6.84300051790545    6.91404804103438
B         1.52253256638318    7.87385355022692    4.87472540092019
C         2.23925015558341    9.24850965918130    4.76396831646739
C         2.55409634846650   10.00405307687578    5.90521173720465
H         2.27360133656895    9.62639221553593    6.88081315151407
C         3.22910549561369   11.20376545476035    5.81242793150537
H         3.48180486325574   11.75194687380638    6.70859885761207
C         3.60315579667837   11.69579783252099    4.57251564285302
H         4.15386127436274   12.62139368207028    4.50078921540595
C         3.27626757138789   10.99047468199731    3.42585568120667
H         3.56403378222627   11.37287831180342    2.45693725466844
C         2.60314183400407    9.78943853581361    3.52042397671801
H         2.35998014016032    9.24397796791905    2.61682293010318
C         2.09048186985649    6.55386034725800    2.68231556843772
C         1.14033003683631    7.10483392693868    3.55710708749687
C        -0.19757241893652    7.03570709911989    3.16040448997989
H        -0.95902082141267    7.46099599338775    3.79654498111157
C        -0.57896706729847    6.46369581714205    1.96146690374635
H        -1.62379636927335    6.43581653870479    1.68794964912617
C         0.37628024925718    5.93315232391463    1.10995798334055
H         0.08500247225182    5.48857438546897    0.16970451847923
C         1.70748663544503    5.97800996151422    1.47446776747683
H         2.46022267643702    5.56993196064327    0.81568528019960
C         4.72539450407638    6.94615909067041    1.61762637074575
C         5.15600953541639    8.26215746140751    1.46922099035981
H         4.99848100260804    8.96514503320612    2.27648174585780
C         5.81753185324019    8.64942845281833    0.31831437774882
H         6.15505523553226    9.66934868247821    0.20969129254643
C         6.06046668266102    7.72556027438721   -0.68474638911122
H         6.57838311452044    8.02588893225754   -1.58387388739759
C         5.65830180269004    6.40855988805014   -0.52789322567314
H         5.86687833211959    5.68373368835521   -1.30188684506784
C         4.99652766067325    6.01308001267619    0.62001705157632
H         4.71095232341293    4.97738125439394    0.74919519237091
C         4.20305037714730    4.78078397848213    3.35743098778129
C         3.21796563365105    3.81576432603701    3.53001095429150
H         2.17470998956371    4.09823805471142    3.50951219907493
C         3.57569115278060    2.49257916587928    3.71808964415169
H         2.80706251746892    1.74292290695684    3.83786679564030
C         4.91019653323916    2.12680286031439    3.75131449341693
H         5.18321102235946    1.09144153443045    3.89147390036639
C         5.89674995770084    3.09108905123520    3.61373694052914
H         6.93872356290553    2.80950661225430    3.65383739347974
C         5.54638626335532    4.41281985892726    3.42579944849070
H         6.30650633686832    5.17699508403585    3.32299439881540
C         1.91040340160387    6.97901862360987    7.30088089207458
C         1.02964937464722    7.39325061982685    6.28932729026744
C        -0.32553964543821    7.46068802070809    6.62023172735074
H        -1.03416020899638    7.80086720627945    5.87985925532858
C        -0.78878485404267    7.13495191383181    7.88121976510587
H        -1.84460955384081    7.20397599447856    8.09969886578938
C         0.09844910909227    6.72924906174779    8.86473720484520
H        -0.25773332504314    6.47752697402564    9.85283585006696
C         1.44600337626960    6.65411337559478    8.57202527884089
H         2.14776197877758    6.34856857659777    9.33473562334122
C         4.49972485980070    7.43573199989724    8.43514554804044
C         4.94994872823791    8.75347981770030    8.41820495523329
H         4.84664406847693    9.33728475804146    7.51294237602708
C         5.56278794991882    9.29024764374252    9.53547315524721
H         5.91609306137365   10.31041032006393    9.51681811464069
C         5.73681877873677    8.51414752844834   10.66963604675776
H         6.21690172280960    8.93143975015875   11.54270794485246
C         5.31351035778977    7.19448352573249   10.68018816366129
H         5.46727528523375    6.58432607490210   11.55882321824231
C         4.69962784516108    6.64989332623554    9.56715167249693
H         4.39397521649847    5.61182427725860    9.57092935547398
C         3.97486502407400    5.04886131225190    7.01174326445263
C         2.95736557621221    4.10269546575590    6.98732471559097
H         1.92464005714789    4.41984454094969    6.94985455166254
C         3.26978425078069    2.75521038352627    7.02073577165096
H         2.47618690380809    2.02208553179289    7.01544205755805
C         4.59089192930013    2.34445312103302    7.06312812708178
H         4.82839979389622    1.29151682397397    7.09553085468846
C         5.60995170173551    3.28443675612776    7.05517702914476
H         6.64149031648649    2.96504485313762    7.07433296831743
C         5.30483061774983    4.63003516757195    7.02181834443047
H         6.09009129400577    5.37554982897884    7.00973434413654

