57
CSD_code = GAJGAB | q = 0 | S = 0 | Stoichiometry = C16H22F12O4S2Ti | MND = 6
Ti        1.20817739018202    9.40020701281034    3.07845104213563
O        -0.30521930742342    8.55197455131217    2.53479088928140
O         1.79555295227827    9.02998149620968    4.74973390917684
O         2.29265516963764    8.77264715644302    1.94210030069255
O         1.10217686493424   11.06735135044794    3.01983084308030
S        -1.04545491209793    9.00864146012484    5.19301853489320
S         1.33737074768125    6.46097937422650    3.70296329244417
C         2.66790265954340    8.94051969251819    0.61775410229413
H         3.63216973744597    8.41844948598247    0.46894295535450
C         1.60643602191722    8.30782443012956   -0.29010778529139
H         1.45502661223211    7.26939372124424    0.00113815347816
H         1.91683066985207    8.34797328879459   -1.33108826366260
H         0.66664050758267    8.84652843898632   -0.16961771684205
C         2.83691795741641   10.43253077283737    0.31136582563893
H         1.89929161171204   10.93904061360661    0.55402787464857
H         3.07903607499256   10.58473368581804   -0.73776270406009
H         3.63345657661657   10.84493930606544    0.92983640163260
C         1.27580175863802   12.32145213690150    3.58785301587584
H         0.41965075322258   12.95553710301110    3.28792763074450
C         2.56907564209925   12.97144546149745    3.08019995733966
H         3.41453537594695   12.33277484499531    3.32728598623339
H         2.70312338814842   13.94466107326601    3.54523109221672
H         2.52381898277655   13.09721276644687    2.00077714498063
C         1.28883476096612   12.19476735402321    5.11556621307274
H         0.38547804358219   11.68052654795610    5.44562190719391
H         1.33384253451025   13.17694363477127    5.57951759787173
H         2.15760219665757   11.61230708004237    5.42012701218407
C         2.85737568887450    8.27559587875253    5.10034354983396
C         2.56312966713202    6.75041828994366    5.01810632480327
H         2.15460595152718    6.39058786413633    5.96190150138930
H         3.45908285812854    6.18153930089675    4.77088038793429
C        -0.22461335363385    6.26301808739647    4.65238252673110
H        -0.96498127561213    6.17504101630359    3.85675141788630
H        -0.15225457339363    5.29772304741374    5.15967056859112
C        -0.63795338562947    7.29200602337927    5.69317350802899
H         0.14009280567297    7.44610212903979    6.44042248189167
H        -1.52616647000541    6.90765926263861    6.20119462187807
C        -2.29598034977214    8.74622641712390    3.89495672059506
H        -2.69722696185143    7.73830107254733    3.99212803765328
H        -3.09621387424775    9.47269620852661    4.03726467228298
C        -1.59950099976137    8.92860539517159    2.51790071414143
C        -1.67938657996413   10.41276612429457    2.08137150365870
F        -1.48005440744164   11.23385510352693    3.12163840468748
F        -0.72756941649577   10.68339124055916    1.17326633533363
F        -1.92638830176398    8.33111945511556    0.21829165270133
C        -2.33516735399178    8.06838097033834    1.45775867518232
F        -2.85122266655585   10.76995248976516    1.54296634732639
F        -2.10689350947251    6.77064827644104    1.68877913317732
F        -3.66810124316360    8.22316576518316    1.48074291470468
C         3.21211906008802    8.63783589581614    6.56860167382678
F         2.12673296388877    8.51027444773872    7.34147316584275
F         3.63441120030946    9.89522819333221    6.68872820843113
F         4.14695192472926    7.84237278588642    7.10758512981516
C         4.08364413948728    8.65477583887304    4.21368926971389
F         3.91449260554614    9.89024040469801    3.70309198595219
F         4.27623683091599    7.82149148315589    3.19011924453862
F         5.24396825539690    8.67743769156011    4.88423410886776

