75
CSD_code = GAJHEF | q = 1 | S = 0 | Stoichiometry = C32H36AgN4O2(1+) | MND = 6
Ag        2.28041882412140    3.81807216995921    2.58235723059969
N         0.99457834126807    5.93761760531356    2.27242135937592
C         1.35909781022111    6.91288644248791    3.32242328835339
C         0.65002603174248    8.24322533747591    3.24112112916766
C         1.18914506120551    9.29606131352712    2.50962780218901
C         0.52144318010342   10.50399065093336    2.40847618061869
C        -0.69697932296975   10.68032318083000    3.04127331363974
C        -1.23400314607849    9.64808226749008    3.79072876064242
C        -0.56379582505489    8.44139332058477    3.89131947297547
C         1.31641264913125    6.42770902128515    0.93091486378329
C         2.81987070313793    6.54328519619300    0.69228138926254
N         3.48345168966334    5.25987462245318    0.90643238027730
C         4.93300259094470    5.41089733314088    1.08314764377949
C         5.28700421753911    6.16540407554767    2.33877311361708
C         5.84829859622364    7.43364194417471    2.27782410947085
C         6.23180183162216    8.10435905360935    3.42679266260272
C         6.06356833448492    7.50478646488224    4.66197958972986
C         5.49692835739088    6.24493844902848    4.74860021170400
C         5.09540052818486    5.58259003861508    3.59635527691553
O         4.46781235020807    4.35955624764370    3.63685607528821
C         5.02398436698335    3.34583279794925    4.44465577783848
N         3.91477025267075    1.99198248193108    2.77686395917999
C         4.80138087159353    2.01559070695589    3.76240693126138
C         5.51245037245998    0.88247138829375    4.14343407392410
C         5.28338447173245   -0.30162062046014    3.46461894861894
C        -0.41990622424484    5.56758174542173    2.33730395909052
C        -0.73902752390811    4.66788790214924    3.53192017324450
N         0.00164386476244    3.40526920174604    3.48951312824359
C        -0.72150375093074    2.32750575405902    2.79651451239610
C        -0.62921471730414    2.40432854788993    1.29640493754100
C        -1.69943304297474    2.82003852879012    0.52161292376684
C        -1.61793082013103    2.83485609141167   -0.86152347333552
C        -0.45832469536142    2.40903404043818   -1.48026926145424
C         0.62303581979271    1.97831823345298   -0.72700178161716
C         0.54929814442792    1.98876428635381    0.65844073885860
O         1.56045534004405    1.60385818005283    1.50126783427032
C         2.70230304385821    0.95327194415600    0.98676618411328
C         3.70081866151456    0.85990909303192    2.11285375867774
C         4.36411591115832   -0.31678181213069    2.42522189333384
H         2.43800102131914    7.06521604380490    3.27154449343971
H         1.14664810618936    6.44861859527627    4.28666959384527
H         2.14925415644783    9.17940913248002    2.02754829492869
H         0.95590955758917   11.31036693730826    1.83712850815301
H        -1.21908491357850   11.62118664571599    2.96106816795335
H        -2.17490900288759    9.78319165010782    4.30246333119031
H        -0.98389623934056    7.65195219826542    4.49871695452355
H         0.84776615633827    7.40317417727006    0.73774633136051
H         0.91087207821931    5.70882580204548    0.21264058015843
H         3.25719433305874    7.25989667138736    1.38772922973305
H         2.98317917997504    6.92414875350233   -0.32663031489581
H         3.33339289088781    4.68545233241783    0.07848601649153
H         5.38259673709890    5.93089231939106    0.22357820068832
H         5.35799328607460    4.40507486151570    1.14459611447818
H         6.00472613721563    7.89511424447003    1.31350439533147
H         6.66945271913364    9.08744634771179    3.35613438201459
H         6.36961791554936    8.01605594789592    5.56111982276267
H         5.35616414416300    5.77974509219660    5.71245314167489
H         4.54230919722545    3.32576179318631    5.43427965431318
H         6.09906636504690    3.50971053164358    4.58907443576556
H         6.22841837385658    0.93302708906497    4.94821333402848
H         5.81634413774869   -1.19983142181174    3.73528522126661
H        -0.66264609144976    5.01702323992273    1.42747524941299
H        -1.06398085645750    6.45680899102470    2.37830505766585
H        -1.82319148109692    4.48696308128147    3.53914913068966
H        -0.48415062026503    5.18386188598162    4.45905036792509
H         0.13088669380203    3.09081905203180    4.44709966243959
H        -1.78173810011368    2.32784527790652    3.08874043666383
H        -0.27469894006058    1.38148454409680    3.11244895369864
H        -2.61493512830246    3.12547882785214    1.00676215642469
H        -2.46076418469791    3.16095987026545   -1.44963817906257
H        -0.38992233089026    2.39848194123060   -2.55696095295535
H         1.50919958251210    1.62999508900755   -1.23384444164305
H         3.15647808366372    1.53944157394430    0.17492617599772
H         2.44184899178872   -0.04301115346381    0.60791033775053
H         4.16941489500236   -1.22108119256722    1.87151508384121

