101
CSD_code = GAJHUV | q = 1 | S = 0 | Stoichiometry = C46H48AgN4O2(1+) | MND = 6
Ag        4.35236595966276    4.96644583760314    1.49003988666829
N         2.06412038950840    5.69952624974262    0.61184768213925
C         1.13127049366531    4.56710987409240    0.78342155486634
C        -0.29284830579048    4.82304769503712    0.34698538290871
C        -0.68868185605929    4.60694076627315   -0.96851117520635
C        -1.98774343271900    4.86249823297620   -1.37060818859842
C        -2.91698956698685    5.33437354105481   -0.45988131301720
C        -2.54233842942431    5.53183729285086    0.85782457037974
C        -1.24248204006969    5.27489081084979    1.25681758223199
C         2.17314948492202    6.06579012773302   -0.80023795588096
C         3.49191129602574    6.75839657848284   -1.13840135686501
C         4.81214439384142    4.84322079879163   -1.78971995884810
N         4.67039251172204    5.94880416401453   -0.82825260786272
C         5.73990037118371    3.77929639545181   -1.27467412097835
C         5.24945029663265    2.79837820129317   -0.41706466338070
C         6.07337018444342    1.76944578735126    0.00976728952938
C         7.40480240714147    1.73943009285580   -0.36771381281033
C         7.90510169302928    2.72410820866748   -1.20119909666894
C         7.07197137023808    3.72638167231784   -1.66678238217993
C         5.87113238961195    6.79056740639838   -0.94310978722936
C         6.03058941274744    7.81876778639122    0.13863182085464
C         6.56225376564868    7.42428572153724    1.37449957518160
C         6.86763511913564    8.38059035613459    2.33315861215733
C         6.57668304456434    9.71474454723670    2.09693526548678
C         6.00669067808422   10.10699176305937    0.90111616081033
C         5.75646709904197    9.15963649850836   -0.07838466724708
O         6.71507433970621    6.06820223936180    1.52864688541032
C         7.55035078831754    5.57959382511231    2.55213004731995
N         6.04852610059997    3.70562424799032    2.75456852295000
C         7.31862960770772    4.10020537910072    2.71142341200408
C         8.37724546261002    3.22114303245844    2.88560161196150
C         8.09818706949109    1.88867774309644    3.14726961429773
C         1.65941108058027    6.87583418091416    1.38463294726800
C         1.71168857288705    6.66944519614095    2.89606190638847
N         2.99657470531139    6.14923034342541    3.35361298710490
C         4.01917423996535    7.20361256945940    3.46021557920839
C         3.72348929271339    8.33401052577941    4.41590003930529
C         4.04692405380426    8.23540177417580    5.76454547158840
C         3.76186645280633    9.27107914220723    6.63698814627993
C         3.15426701074708   10.42452736851824    6.17111668075820
C         2.84587431996766   10.54231048473079    4.82668431420820
C         3.13140864207210    9.50518774904956    3.95613963312543
C         2.82879238956363    5.45236209667802    4.63384579074178
C         1.91827803231990    4.26026006512723    4.52474315459943
C         2.32302689749457    3.13237240691158    3.80192923843233
C         1.50439004900784    2.01216515064983    3.73529137564125
C         0.27143813245139    2.01569681654355    4.36545868325964
C        -0.14539087564706    3.13007430843369    5.06996094722444
C         0.67828555358427    4.24053634519024    5.14740449424610
O         3.53864047536270    3.20793403314936    3.16496864497237
C         4.32621339731519    2.04231384794207    3.13316285395103
C         5.77897492740782    2.43523384094838    3.02552299005264
C         6.77719707385764    1.49045245163589    3.23958232006053
H         1.53823254284514    3.72930457355603    0.20957559707988
H         1.14340992558303    4.28461895308566    1.83554417324731
H         0.01746574776997    4.21791848156183   -1.68833160157641
H        -2.27568668956504    4.68687856732379   -2.39611839314174
H        -3.93023366617352    5.53437006365519   -0.77237865673544
H        -3.26491160139310    5.88205539108573    1.57943649832724
H        -0.97099978528937    5.41019554263182    2.29400542608364
H         1.34887450465002    6.72807843788028   -1.10421880990540
H         2.08912302876322    5.15501397675264   -1.39268782273257
H         3.57574818127391    7.68361563523206   -0.56646342050419
H         3.47443907527069    7.02484312219296   -2.20756119611138
H         5.17198754365856    5.22486130997848   -2.75763628570212
H         3.83246975205829    4.39215043787999   -1.94835837829352
H         4.19456762844353    2.79724421759668   -0.15407076874932
H         5.67551458048378    0.96837589615546    0.61450469620815
H         8.04400854528940    0.93757117549180   -0.03091329477490
H         8.93885965351989    2.69740401990904   -1.51042128290785
H         7.45878908332725    4.45832911349480   -2.36145904452060
H         5.87570771150997    7.29588688814408   -1.92232470888904
H         6.73321749485870    6.12349718509723   -0.88841256419763
H         7.32281789063052    8.10955744354655    3.27216380905106
H         6.80353372529052   10.44614753969350    2.85654021696364
H         5.78142383658837   11.14580729500047    0.71987420789138
H         5.36144488611383    9.47008732368278   -1.03503166183835
H         7.31123698032118    6.05028049178303    3.51664672739278
H         8.60243079500694    5.78493330698823    2.31527688857885
H         9.39484482428363    3.57257051327471    2.82987220260387
H         8.89803896990878    1.17953532043462    3.29376123696734
H         0.63670083177229    7.18443958517456    1.11718038968267
H         2.33302517006133    7.69047474233158    1.11510914939365
H         0.94390039886317    5.95217451347508    3.18368947075808
H         1.46665006057297    7.62374952174421    3.38471412590224
H         4.16084734687306    7.62040871024475    2.46029482988941
H         4.94445505805621    6.70913887331289    3.76818159961690
H         4.53753530778067    7.34631814539423    6.13545036484338
H         4.01910716246047    9.17914976535149    7.68148312950159
H         2.93207954955380   11.23241964279566    6.85109388453067
H         2.38580065339884   11.44502373913895    4.45396727343988
H         2.90720259731299    9.61318861676935    2.90369209932006
H         2.43127071287512    6.13178220453854    5.40232840938017
H         3.81864698940794    5.10625972019199    4.94522613913330
H         1.81844809669635    1.14039437338694    3.18233887373371
H        -0.36063679110354    1.14388967479432    4.30314743488892
H        -1.10448479861780    3.13389781765539    5.56292460684280
H         0.36075417052095    5.10457613776517    5.71335377557928
H         4.05727436619722    1.40779087554156    2.27516708098294
H         4.17978213644922    1.45474139439009    4.04989332215289
H         6.51882929406280    0.46955615144571    3.47283766179458

