48
CSD_code = GAJHEG | q = 0 | S = 0 | Stoichiometry = C10H30N5NbO2 | MND = 7
C         3.22403621224334    4.92259472929026   10.47036753922730
H         4.08706385279756    4.56581528654413    9.91352148314803
H         3.23011262816282    6.01367882060615   10.49242911273054
H         2.30849180930791    4.57385635414294    9.97628670623911
C         2.11833861434091    4.84868028097258   12.57726438331933
H         1.19849306756092    4.56596087731050   12.04981544513471
H         2.15435861229325    5.93321191133184   12.69320482257312
H         2.12473284652442    4.37988270854858   13.55815084272222
C         5.42076900785396    6.48851544185709   13.00331580319785
H         5.16899240280961    7.02574255549373   13.93302351583245
H         4.54039986933436    6.46606365357867   12.36768889676429
H         6.19877843590120    7.08138109141371   12.49452509753358
C         7.11740287629029    5.28823731579208   14.04502597510604
H         7.90483607333841    5.76972153176134   13.44060621304257
H         7.48171192403002    4.32093523020094   14.37907899655170
H         6.96345526545180    5.92414489010697   14.93259664254225
C         6.70204566238287    1.71700737476876   14.91584023284000
H         5.76026045337187    1.91569964356620   15.42174885300155
H         7.50775059383009    2.25080117317979   15.42281702862080
H         6.90534229837350    0.63917082347614   14.94542856605201
C         7.84572541261600    1.86842137296392   12.83336394488188
H         8.08463393709375    0.80120062428661   12.92316538519226
H         8.65620265420228    2.46146376023056   13.26036045182470
H         7.72850789526668    2.11998972287323   11.78227606973523
C         4.02554612327206    4.19114085262810   15.65436139728143
H         3.00822904172354    4.56066998821435   15.87665551264073
H         4.67032879851498    5.04742384290091   15.46558732748831
H         4.37978151142280    3.68013834660153   16.56779214105513
C         3.16501723459183    2.18936905735662   14.75776031746402
H         3.47162497509455    1.62345892990290   15.65585512444929
H         3.18073263930931    1.51832341103360   13.89711838670355
H         2.12357517941558    2.51298245801988   14.93558002243742
C         6.90681756211329    4.44155663212499   10.37285262572107
H         7.87264793708286    3.96741120165824   10.12184100429537
H         7.09042388358156    5.23909147243183   11.09025642517694
H         6.52654972422337    4.89148050201915    9.43799864287645
C         5.73877859006476    2.43472034051694    9.97472344688006
H         5.34219929504531    2.82501166519547    9.02011459673460
H         5.02230732833987    1.72252569106780   10.38785806837545
H         6.67115995617886    1.89590871855053    9.72635134573023
N         3.29524509950602    4.38293201671083   11.83414865653710
N         5.89105126850539    5.14871321409093   13.28756331033279
N         6.58568962648882    2.16863609649461   13.52346887720801
N         4.03775898214736    3.31353995762727   14.51222656503825
N         5.97415902136312    3.49428199032422   10.92742734693726
Nb        5.01290312183324    3.41792755806115   12.72448351119251
O         3.28402733743564    3.01061505826961   11.77276369092702
O         5.55800335736816    1.48766382390036   12.91770964870341

