88
CSD_code = GAJHOP | q = 1 | S = 0 | Stoichiometry = C39H42AgN4O2(1+) | MND = 6
Ag        4.65844209078362    4.47635070293536    4.43657465423822
N         4.80428403244692    4.23433081162635    1.85399363368500
C         3.55171294444342    4.87036969864024    1.40133972443025
C         3.35008568779745    4.90574731826898   -0.09492698110894
C         3.86488626522563    5.94820037085984   -0.85787322700998
C         3.70461653542465    5.96250694741033   -2.23209493488939
C         3.02274636620401    4.93667147470272   -2.86423639566842
C         2.48810699868232    3.90439843817095   -2.11309226664823
C         2.64859687417643    3.89152705993227   -0.73832197281300
C         5.97700608376280    4.95325446417401    1.35947370605352
C         7.20207633274990    4.76796481223349    2.26128515963364
N         6.96137956586825    5.13463472517789    3.66024402361135
C         7.85699941292454    4.36614051853887    4.53901478438081
C         7.44676337930726    4.40743641086913    5.98589870179480
C         7.92488074548555    5.38469475824977    6.85325485979464
C         7.59988453341989    5.35459364450870    8.19795778217190
C         6.82197625479232    4.32652691849128    8.70362779796240
C         6.35651075269040    3.33710287151975    7.85370028287155
C         6.64790418960642    3.38892178462972    6.49883734132877
C         7.22267110147126    6.56787659858389    3.89518117055567
O         4.49652506616620    7.09862153802496    3.93313837591205
C         6.58186344826023    7.50500325790857    2.91456375360836
C         7.34823124624568    8.15493281891245    1.95890824567884
C         6.77640047045843    9.02272994437505    1.04347668601942
C         5.41390548977605    9.24520839205364    1.08047990438979
C         4.62817161450888    8.62047294098276    2.03668671939193
C         5.20392443920316    7.75730041338191    2.96172897167329
C         3.20958053942209    7.59086379033501    4.22825335201207
N         3.10258253269027    5.82507957604903    5.88570363643506
C         2.76843103644836    7.07127033458294    5.56769369802171
C         2.02149512274046    7.88595159831280    6.40954073819562
C         1.60434118752838    7.38461956384777    7.63080151478105
C         4.86981693456176    2.83023785413273    1.45081471758669
C         4.04291283071916    1.92735838129034    2.35497263969387
N         4.54080448270748    1.99301092330929    3.72571938204994
C         3.83170124811119    1.04266023298626    4.58986609063723
C         2.41868413830592    1.49845003675544    4.81541626065708
C         1.34147775206594    0.88391917573571    4.19963331541073
C         0.04904197614705    1.33567653047437    4.40984279118816
C        -0.16628803199489    2.42071863620030    5.23783458168417
C         0.89831999244310    3.04957640634889    5.86425595584066
C         2.19248039635479    2.59357358884214    5.65709019126476
O         3.31223197299204    3.12926782993663    6.25333018411286
C         3.10843649948126    3.93355850592258    7.38855343772108
C         2.69852003230440    5.34277045013279    7.05656229382841
C         1.94917338365406    6.08676767340410    7.96090017000400
H         2.72285977218216    4.33426960715092    1.87025674025873
H         3.55796281593510    5.89202273209117    1.78241101857962
H         4.38497398175267    6.76399918421329   -0.37514860150131
H         4.10963523044913    6.77949316181591   -2.80989377911814
H         2.89874073279592    4.94782301830136   -3.93607040663027
H         1.94116038856129    3.10934044718729   -2.59693667177173
H         2.20864080485959    3.09254733079107   -0.15727042049812
H         6.24899499101736    4.62596354181665    0.34498913933906
H         5.73396900516400    6.00973177250013    1.30861252484079
H         7.49775776969907    3.71765126247753    2.23084305898631
H         8.02942674700732    5.35262369546516    1.83675591176154
H         7.83355579636265    3.32307936305041    4.21544324520809
H         8.89312934629430    4.72939216190491    4.44128237323808
H         8.58097137866245    6.15930585320894    6.48433007770955
H         7.97992142373484    6.11854215691240    8.85892320065903
H         6.60127219002046    4.28441305728131    9.75958375922865
H         5.80021545087552    2.49972786253264    8.25004495537432
H         6.32759071674149    2.58225570132303    5.85337336341599
H         6.85615170442964    6.80099782721038    4.89781339259163
H         8.30962402504049    6.74684921888811    3.86570641364259
H         8.41442001699759    7.98426143896366    1.93304463882607
H         7.39095961782396    9.51795160058598    0.30913119783003
H         4.94956375738417    9.90912328009728    0.36802259230909
H         3.56607321938798    8.80848595176272    2.03642546881846
H         3.21627195701899    8.68780678199386    4.25281611328701
H         2.48306292978386    7.25972935689256    3.46817665827559
H         1.77373833388593    8.89221321679813    6.11197845344693
H         1.02366163595948    7.99194379345001    8.30740210405095
H         4.54873344444806    2.70251358385454    0.40781941893797
H         5.91077013081713    2.50656061252060    1.51538642280473
H         2.99543001286432    2.23357208700167    2.36046913022841
H         4.09203089755184    0.89941237280797    1.96061042827906
H         5.51981218153028    1.71211634582830    3.70081550666541
H         3.82705576245163    0.03521130826658    4.14690220126101
H         4.35200330723824    1.00352795125553    5.54944723640069
H         1.51565273153362    0.03275039814451    3.55794795591481
H        -0.78183301025653    0.84300682792651    3.93052284242826
H        -1.16795370291181    2.78481323465185    5.40630738615214
H         0.70501736021184    3.89978146676310    6.49975307788629
H         2.38076949460934    3.47148399476417    8.06732316586306
H         4.08286515693222    3.97413627043863    7.88934080135024
H         1.64424454458123    5.65011844534444    8.89880245150017

