83
CSD_code = GAJJAD | q = 0 | S = 0 | Stoichiometry = C32H36N6NiO8 | MND = 6
Ni        6.01268384944317    3.43563098266440    5.05483744034032
O         9.08983161797309    0.06341228621074    5.13994832799166
O         5.72281613895332    1.95555521066297    1.17932023392890
N         4.89488356706463    1.92898401700577    6.71200052603101
N         7.61319004706050    2.22129271506188    5.98667421979540
H         7.67359736089124    1.37994108566883    5.40846750493210
N         5.19182011252222    2.18736094512089    3.89129309001185
H         5.89979300488154    1.98285710548085    3.17645213302406
N         8.14802649195180    0.54001364528887    2.03712456854707
C         4.13947335219485    2.68418247440247    7.72660061371739
H         3.45203713367501    3.34876933010006    7.19886386981653
H         4.85860115101412    3.30120946349058    8.27083662526237
C         3.37325390983715    1.83372310983751    8.71062930146982
C         3.91540245564108    1.53536254697231    9.95644147630340
H         4.87127322377426    1.95491060222332   10.23915879372887
C         3.23441502537819    0.72948073020077   10.85234403739644
H         3.67065655373173    0.50948070069209   11.81559249850870
C         1.99520089898724    0.21281679099728   10.51716708546616
H         1.46219888034952   -0.41567110282791   11.21480134005802
C         1.43515488028697    0.52049402652635    9.28904087241122
H         0.45964463878963    0.13683657597418    9.02856786123103
C         2.11811206232492    1.32571275605418    8.39509400301588
H         1.65939053433325    1.57518851466557    7.44960083011970
C         4.03236488192721    1.17037115766111    5.80889192632726
H         3.14275511050693    1.76961590847798    5.61335809857961
H         3.71126123958996    0.21208849187612    6.24454941653865
C         4.75492588807886    0.91946580875802    4.48231143647038
H         5.63346032008672    0.29061795624496    4.63960681801317
H         4.07892827569465    0.39443320882731    3.79486351402249
C         4.09272405795514    2.87809815901862    3.18886981814293
H         4.47878489903580    3.83479687534974    2.81925076100157
H         3.29506149593780    3.10052430336707    3.89963036878962
C         3.54348353466340    2.09843336372780    2.02077783649095
C         2.18914217082155    1.83413621905133    1.91237350345131
H         1.52516400582005    2.16835615028715    2.69620178268597
C         1.67515317855463    1.16071746153690    0.81583826906936
H         0.61650065835727    0.96452249817077    0.74864241288764
C         2.52725220936876    0.75195693407207   -0.19158230254592
H         2.13863046556043    0.23654356074450   -1.05674945252479
C         3.88684636022837    1.00358056630746   -0.10666065830369
H         4.53366272534436    0.69271729765086   -0.91183303279126
C         4.40489258013397    1.66944614215176    0.99628186569084
C         6.69985795510123    1.38246892372433    0.32848564417323
H         6.75816382662901    1.93988989887112   -0.61388169660951
H         6.45612938203255    0.33187269144762    0.12899593542194
C         8.00776322513400    1.44696585534415    1.07918311541906
C         8.96608804356846    2.41426290540522    0.81253266541212
H         8.80757428078108    3.15154615344250    0.04314286598829
C         5.92568085784675    1.08661278934698    7.32363760485602
H         6.04619176425687    0.17517757010151    6.73430692585689
H         5.64393839137734    0.78461486792754    8.33876561553654
C         7.26736930062018    1.81556590114590    7.34594568211940
H         7.20828544419957    2.71530059628216    7.96384666281681
H         8.03253812459280    1.14955365230087    7.76871514499915
C         8.93843725953934    2.84000648551133    5.92187039012712
H         8.94168376683192    3.72241242526058    6.56497798946099
H         9.08158898421214    3.17119726548896    4.88883740441996
C        10.08230392304254    1.92573042560312    6.28709484511226
C        11.13523713077144    2.41928793182900    7.04723293937095
H        11.08172283408413    3.43607804973806    7.40721289568963
C        12.24721225610248    1.64847282826624    7.33395374926000
H        13.05391935345044    2.06011406967905    7.92070773071824
C        12.31758455106553    0.34776134661643    6.86791425239101
H        13.17611266467119   -0.26768584366969    7.09002221402833
C        11.27645440150140   -0.17102631700203    6.12146959028369
H        11.31978648332099   -1.19316535933966    5.77385279612938
C        10.16421315814797    0.60758966074830    5.82145004011056
C         9.32709521985835   -0.49680126773144    3.85695017975068
H         8.53121038983450   -1.22926076559263    3.69988207168470
H        10.29937168587264   -0.99936830103016    3.81963063408033
C         9.24551332504951    0.55679254888464    2.77691232834751
C        10.25627886538569    1.49362174922447    2.59777680309212
H        11.12840258581305    1.48683297424399    3.23496417423368
C        10.10812165598555    2.43732568243825    1.59623207438797
H        10.86304870336805    3.19153771533982    1.43547291186421
O         7.69279452825855    3.42262042179324    3.32468859952931
O         6.26977399237804    4.99623461902720    3.35694290663987
O         7.80911893396094    4.98496520548294    1.86790529764051
N         7.27374182008348    4.48896097502179    2.82709552607186
O         4.47638690856670    4.82613817202477    5.63626364319857
O         6.52330631899270    4.78017490673592    6.16925274342017
O         5.30672810481453    6.42105260881561    6.80441699858229
N         5.41671865017619    5.39270140548999    6.20616046927975

