74
CSD_code = GAJKEH | q = 0 | S = 0 | Stoichiometry = C27H17F26NO2W | MND = 5
W         8.51939539209240    3.95740818841451    5.27772881742517
C         7.10017411921725    3.04163668064460    6.61458857435734
C         7.92665460840203    2.09739620060565    6.22197204839206
C         9.21807689156522    2.01792318482098    5.97886777900656
N         9.32188919190142    4.83424976340205    6.58937534657566
C         9.75187574918464    5.67583638262303    7.54929305570661
C         9.33221150481356    7.02605205022427    7.50716346863392
C         9.81219377343353    7.90060925507821    8.46399286077654
H         9.50621886401850    8.93452645799206    8.45328951164701
C        10.68054453821943    7.46090219430987    9.45064471673897
H        11.05097151329693    8.15901851866919   10.18618145971229
C        11.05398348057926    6.12820964938362    9.51828596064693
H        11.70339806002064    5.80307852893836   10.31528319513196
C        10.59825083806627    5.21688130046888    8.58359802857901
C        10.87033810773975    3.73580867563413    8.64095785143754
H        10.95294122210405    3.37067721167901    7.60680893791014
C         9.64258476644111    3.05262618935517    9.25965915017896
H         9.78077841968255    1.97526365185737    9.26889318694658
H         8.75271514534019    3.28189682671348    8.66887127924292
H         9.49117152031951    3.39961487776912   10.27959371045484
C        12.13703022808900    3.36537698786047    9.40587266472170
H        12.33901431251787    2.30482526729866    9.28134309307754
H        12.02309467495897    3.56375248292189   10.46888887158696
H        12.99081330652817    3.92477590516410    9.03195485886672
C         8.31067163253329    7.39544307590446    6.46047702182318
H         8.56631094377474    6.84300855878200    5.53247357503567
C         6.93504780521365    6.89208633552926    6.93407006508103
H         6.15278513524135    7.26137646182483    6.27749092435662
H         6.73416981489619    7.25265918101471    7.94088084005920
H         6.91122745413194    5.79300208953668    6.93906508818387
C         8.25722373962810    8.88644684096914    6.14301003122352
H         7.62091982362570    9.05189887800348    5.27708774747063
H         9.25068631531897    9.26736280157939    5.92014620774996
H         7.84345021314966    9.44439464173572    6.97957136950100
O         7.11366113356375    4.86247245314880    4.19083352102316
C         6.11479204469448    4.88077520162470    3.29363309691136
C         5.11368161796225    6.04555145878524    3.59096301237084
C         6.70394819180496    5.11777986891640    1.86894667749194
C         5.33289719756443    3.51979543600709    3.35430767317105
C         6.16005994064098    2.28763302237126    2.88228122669500
C         5.55541487733584    0.92576263503422    3.36297005133337
F         4.37097011453972    5.80294581651227    4.66451001826028
F         5.78460318008708    7.17010024184458    3.81803003438977
F         4.28898744740495    6.26734528969734    2.56737328017077
F         7.82397026024670    4.38764887733698    1.76153841397891
F         5.88701039325876    4.76347591643954    0.88266172413177
F         7.04099802657622    6.38543096446829    1.67967516965910
F         4.16938985582857    3.55359494548396    2.69041346299694
F         5.04752444396778    3.29641136840429    4.66012615422114
F         6.30136519942738    2.25705303363464    1.55810302099311
F         7.42103558630823    2.37834299870115    3.42600676848255
F         5.82198776421752    0.73518135954713    4.64694939320680
F         6.09321763787613   -0.06888412434225    2.67406130561703
F         4.24312208417098    0.89112037594466    3.19170837579335
O         9.64782762867812    3.88744155513658    3.65633251422517
C        10.77204918090958    4.41768240862271    3.14194702071078
C        10.42444493524083    5.81766236714740    2.52555652213149
C        11.75785069779077    4.68274896979067    4.32240030126630
C        11.37050466784746    3.46846490952432    2.05647579359791
C        11.74077684593967    2.06334225077919    2.61768350705071
C        11.93183788923523    1.00453556450977    1.48442912717171
F         9.39237339317425    6.29596175284424    3.25532798444395
F        11.41853288370128    6.69462055811857    2.60763309469465
F        10.03671006230035    5.78379826460113    1.26321223546719
F        11.69266765914340    3.65916901863331    5.18192345807527
F        13.02411691807906    4.86908906877865    3.98671426511049
F        11.34497590706668    5.76314768112330    4.99839320258869
F        10.45959652301086    3.29121569201610    1.08106382778085
F        12.45662855148450    4.01476427794715    1.47946996336530
F        10.77501848427745    1.61230655184620    3.44141039703495
F        12.87542384099692    2.14564216934027    3.33003605777762
F        10.75476700953636    0.62137150052964    1.00548323437898
F        12.65587838034035    1.48489737485261    0.48235885059042
F        12.54956843718370   -0.06632437208354    1.96277496323483

