83
CSD_code = GAJKOR | q = 0 | S = 0 | Stoichiometry = C34H40N2NiO6 | MND = 4
Ni        4.19049242815236    8.62444668105674    4.56379217436774
N         2.65939583430745    9.62688913661596    4.87171750030754
N         4.59798110521204    9.74393795985946    3.13726341193792
O         5.65898824433345    7.57657512787724    4.23703326370554
O         3.80023172884028    7.50416076106784    5.97549911918640
O         0.71157840260164    7.88630687488258    8.82924837498278
O         2.80251924582322   13.42263390607970    8.71003218796409
O         8.69514164616353   13.19741752226587    3.93199630469757
O         8.51220815529280    8.01329583139701    1.16013041002041
C         5.72912208364387   10.68063976229478    1.19366238641964
C         5.65897012109008    9.72631662133063    2.35824665486164
C         6.71040438586412    8.78689957703509    2.50680643965100
C         6.60428699327706    7.71459080014178    3.41508913815409
C         7.67539182369226    6.65636688560401    3.47746310733610
C         3.59785760473407   10.78535358993207    2.93178239934567
C         2.32742994165609   10.46275508068592    3.72367471233172
C         0.45092131043691   10.20215366453928    5.72704182813558
C         1.77881959882559    9.49647132932927    5.83565822601703
C         1.97364058970105    8.63260264006746    6.94900136251353
C         2.96354279008588    7.63096747239670    6.91073605593090
C         3.07290885208432    6.62328676154621    8.02401323447366
C         1.16029314281727    8.80382947324639    8.16641466596021
C         0.98519741075901   10.21909324765075    8.61288197729145
C        -0.16743445593655   10.59309294095821    9.29194030607156
C        -0.31814536835285   11.90192989393526    9.71703546199141
C         0.68322565403845   12.82586552100827    9.49841596032600
C         1.86438255974813   12.44880638985595    8.85373418717530
C         2.00602109446540   11.14342906752573    8.40252510232927
C         4.08284390616376   13.06962895585952    8.22467576322725
C         4.97723546322078   14.29943167850513    8.33921258950444
C         6.42420222136710   13.98575512300256    7.96895169134632
C         7.30461949148726   15.23013203591418    8.06526047269172
C         8.79783611012970   14.93154636587834    7.92047622173746
C         9.19839466490556   14.25439706064074    6.60991788374728
C         8.85997269873344   15.08338550325155    5.37309836689286
C         9.37810090869503   14.42442971656248    4.09889258134485
C         9.03287895088276   12.39319363529249    2.88925488597649
C         9.95711833141771   12.71572526191325    1.89956883616367
C        10.21831735695125   11.81400708248224    0.87926641852114
C         9.56738192105853   10.59975345593215    0.82689618280171
C         8.62762382019502   10.27334520359151    1.80481514246619
C         8.37469930489744   11.16500135274871    2.83691336343725
C         7.97186952638097    8.93198959795687    1.74763469670189
H         6.61101905643281   10.50089441790733    0.59014697395919
H         5.74148664348858   11.71453531222198    1.53586059673980
H         4.85600891314144   10.54203677462005    0.55556544453861
H         7.73547342813898    6.13410354205923    2.52641665661267
H         7.42712870354153    5.95549122256252    4.27013702561092
H         8.64764894290956    7.10367172061122    3.67040502907928
H         4.01626111876905   11.74191228534858    3.27427329144541
H         3.33630903561647   10.89060921015348    1.87309377674299
H         1.61982607229957    9.92181459750280    3.08029420101779
H         1.85501927681421   11.39894530727084    4.04136448061298
H        -0.23550598593006    9.85526870765342    6.49116486739628
H         0.00797551573335    9.99678972764110    4.75279507823363
H         0.56557777142878   11.28082685501779    5.83085108926971
H         2.18085121075914    6.00204947770674    8.04269941793944
H         3.14596262840753    7.11627155411302    8.99010668608136
H         3.94960032771901    6.00436465398533    7.85174271838482
H        -0.93488848137609    9.85521277379808    9.46829764331332
H        -1.21949320982034   12.20306250666823   10.22952703822838
H         0.58586155819894   13.84768155654652    9.82984886947357
H         2.90613854763050   10.82297587273565    7.90153379951632
H         4.49902931112812   12.24769137770247    8.82328893373246
H         4.02015552164934   12.73890575866036    7.17793537455650
H        10.45927367110099   14.24599600871298    4.17917068959102
H         9.19225492019531   15.07940110020589    3.23546067261107
H         9.30526898197766   16.07669068414802    5.45506079005381
H         7.77950648044603   15.19437117253795    5.28315073202566
H         4.92641281976221   14.66368845784543    9.36682720581966
H         4.58417775972018   15.08432106942804    7.69059784699718
H         6.81005219283952   13.21816592222622    8.64359664061710
H         6.45609353185855   13.58441712746710    6.95477667693765
H         7.14718001602047   15.69562583259133    9.04130162011024
H         6.99545030310343   15.95387060894101    7.30949511601917
H         9.34762281266917   15.87150410194056    8.01410504194858
H         9.10707910299842   14.28666141323268    8.74631349259874
H         8.71353234955282   13.28203306291819    6.52675385115861
H        10.27744015047880   14.08139348003435    6.63163992040026
H        10.48067379506633   13.65853965231728    1.91510366151086
H        10.94249575464631   12.07256703217737    0.12104397890263
H         9.76730142350510    9.88850285431782    0.04047672783784
H         7.67797042752549   10.92309865676111    3.62450529232838

