59
CSD_code = GAJMOV | q = 0 | S = 0 | Stoichiometry = C28H25N2O2PPt | MND = 4
Pt        1.52102208632013    2.92867762783885    3.82830652890817
C         1.45185709954179    2.54425752867601    5.84127143903366
H         1.08589217864300    3.42645788909719    6.38551845581675
H         2.43636490215567    2.30839849270099    6.25619781715285
H         0.79152127742369    1.70584584341755    6.07565854473308
P         2.38808368652600    4.99340457667318    3.91538455215504
C         3.58054979972767    5.19199234763746    2.54547997608598
C         4.75040772427048    5.91880769197675    2.73295586656495
H         4.96058007213949    6.33884431096940    3.70632977899641
C         5.64937102527728    6.11480581109747    1.69869085226350
H         6.55408977311800    6.67757645748259    1.87228204586496
C         5.37776659302366    5.59587432440223    0.44341837353552
H         6.06825230067863    5.75065246631803   -0.37162273762429
C         4.21572956470747    4.87989768641726    0.23709101575315
H         4.00428684142504    4.47498736833854   -0.74247431708488
C         3.30769357569085    4.64662309639800    1.27391407955161
C         2.12247672677413    3.87340420986247    0.94720976131175
H         1.90576197952578    3.78281011579065   -0.12242333453829
N         1.35320640971732    3.31663149091807    1.79474218030985
C         0.18829470282016    2.60430679664816    1.39508906359100
H         0.11494159640179    2.46620112704024    0.30720228582437
H        -0.69768735115555    3.15476443157825    1.73727266240215
C         0.12889737029322    1.20934163973565    2.07911380732730
O        -0.45106936351695    0.30183980919695    1.47367642392326
N         0.72393449298621    1.15642373212065    3.25466144154884
C         0.94344398818265   -0.05816458158225    3.94156654796277
C        -0.00662848875269   -1.07943611711916    4.10867411780592
O        -1.25098802148636   -1.04021863507050    3.57851554254995
H        -1.19911529410179   -0.56211576536369    2.71802257578420
C         0.32732675344885   -2.18315354876622    4.89204045117496
H        -0.42815516755380   -2.94195248851926    5.02638496307193
C         1.57212076949930   -2.30512983085490    5.47320545121720
H         1.80073740715581   -3.17071871071972    6.07709344206932
C         2.52774601803597   -1.32312931213309    5.26641582466380
H         3.51371815576457   -1.41814691461033    5.69606836193597
C         2.20726851486553   -0.21693728999581    4.50845310295645
H         2.93592636694673    0.57223004790934    4.33963170434231
C         1.06627936771364    6.13319912968335    3.40638268104104
C        -0.23995913566817    5.71782906900961    3.64815445789348
H        -0.40106465284417    4.76043071537580    4.14273085623430
C        -1.30347427998001    6.51270011590765    3.26177652612408
H        -2.31729114837105    6.19070500971673    3.44808577687615
C        -1.06433703059918    7.72325670966195    2.63031774528202
H        -1.89291466719034    8.34466356502621    2.32483990256947
C         0.23542617827255    8.13778335067236    2.38447298705011
H         0.41651012278553    9.08045370647170    1.88912119246614
C         1.30304448596478    7.34587245127666    2.76840210032653
H         2.31895805524641    7.66228517584093    2.57222655804740
C         3.19876606113830    5.78834875797844    5.33254579093606
C         4.18964379430311    5.04047325534780    5.96669572144602
H         4.43492423575800    4.06204584032207    5.57291443463880
C         4.83618347549002    5.54539167695263    7.07749470345985
H         5.60680809233449    4.96742579186318    7.56521325158899
C         4.48555290859295    6.79334438133230    7.57123785612475
H         4.98593115174795    7.18806772913577    8.44280367292691
C         3.48756302271076    7.52990391850696    6.95539471889770
H         3.20963366687899    8.49676285332942    7.34836456448284
C         2.83922946732386    7.03127810736860    5.83799081104108
H         2.05606076305343    7.60452496251831    5.36261504164726

