108
CSD_code = GAJMIQ | q = 1 | S = 0 | Stoichiometry = C49H53ClN2OPRu(1+) | MND = 5
Ru       10.19881288440555    1.06562808029496    6.40592389971438
Cl       11.63675379125941   -0.59770235922373    7.05213502827167
P         9.60840233422657   -0.42879625254713    4.75562993120981
O        11.67326515010070    2.37928333693819    7.77295070531238
N         7.30007481387616    1.77779479996871    6.86445490807021
N         8.38645415947680    3.50787523602727    6.14019375900315
C         8.49777687855823    2.20787212198475    6.41724642249004
C         6.38413175713787    2.89408560914460    7.12870840940992
C         7.03677525625706    4.02838411218750    6.35389185497597
C         6.91090270487528    0.49276098068618    7.33800287274572
C         5.77316563702031   -0.13381732752004    6.82115911788148
C         5.34554611839767   -1.32349705314021    7.39726744756329
C         5.99831844827307   -1.90353715885003    8.47100369374964
C         7.13426470379469   -1.27370484841836    8.96034100341581
C         7.59407130564764   -0.08853700796638    8.41413828626772
C         4.95446559128934    0.40220164133808    5.68202750441283
C         5.47561462604051   -3.15039172385903    9.10817501732328
C         8.82042348372993    0.56416459158284    8.97230586348970
C         9.38060696191609    4.43797051005368    5.72815042435076
C         9.57146773388194    4.71849703789911    4.37506205765618
C        10.48169247426517    5.70402403918404    4.02244245203948
C        11.18410700113679    6.42430666698339    4.97662298365846
C        10.95355628042630    6.14705171497423    6.31739646159963
C        10.05400699660179    5.17053444828222    6.71007308866126
C         8.79265238693722    4.00213060428550    3.31727929329304
C        12.13843676012709    7.50365567787167    4.57803323559914
C         9.78087277203141    4.93324885530363    8.16418518795813
C        11.07806543969246    2.14190448185484    5.11335351638073
C        12.12873007671156    2.99324955946275    5.54251614435220
C        12.89233654201316    3.71964768159871    4.61060969330712
C        13.91108973957210    4.55022278459436    5.01465440394216
C        14.16572411474867    4.70932641397655    6.36859250347400
C        13.43186552817364    4.01313416585113    7.31448842812186
C        12.43797597165920    3.12820558752499    6.92274402877766
C        12.20882208035306    1.92281713389814    9.04158959073262
C        11.99006267499115    2.92517909484500   10.17274217821066
C        13.65314076623432    1.43949924801694    8.94844897991753
C         8.90466823515194    0.24025325601520    3.21707885335231
C         7.62114485660147    0.77477129221614    3.28141339056685
C         7.00079008972707    1.26073966785990    2.14611980705105
C         7.67481919571725    1.24193778997149    0.93484362674298
C         8.96271150427899    0.73656698498068    0.86851625618878
C         9.57906450651882    0.23163999517158    2.00145850196948
C        11.03581999511388   -1.36010830045681    4.10333337341556
C        12.27937974531440   -0.74099249400923    4.00158039368062
C        13.35500151138648   -1.42310065026499    3.46529669267389
C        13.19990516917221   -2.72810329491807    3.02398549122596
C        11.96410914227476   -3.34525804719191    3.11607950628068
C        10.88206604658247   -2.66667188636735    3.64983064787330
C         8.46329586101032   -1.76839892457016    5.22026563345175
C         8.76288482033971   -2.47179809086933    6.38537473513269
C         8.02441766948643   -3.58515613313489    6.73697317255643
C         6.96859941155731   -3.99626482606079    5.94047758108717
C         6.65517336189594   -3.28998951901004    4.79135157804521
C         7.40148023566934   -2.18469840464489    4.42266614722223
H         6.35866672193613    3.08880622733156    8.20907456046348
H         5.36948978069828    2.67428555012571    6.80499775752759
H         6.55583270431557    4.20843118010531    5.38580686474828
H         7.06711604511398    4.96989540776270    6.90285705966707
H         4.46370690998895   -1.79972337223089    6.99478552037196
H         7.66478674062996   -1.70868212334267    9.79462052723845
H         4.80553069651586   -0.38448305728778    4.94386512218699
H         5.41209778802464    1.25276836095608    5.18778924845741
H         3.96933840533201    0.69953676157502    6.04316899463819
H         4.78554065451339   -2.89029112126219    9.91132219057719
H         6.28195821551101   -3.73773760366959    9.53934989547872
H         4.93584293938322   -3.75834866569726    8.38720527324608
H         9.15388272014399    0.04896646252106    9.87028758565174
H         8.64022983326968    1.61342255840970    9.21926023795617
H         9.63960994840510    0.49677630551910    8.22158823504773
H        10.63313633669215    5.92177575225098    2.97545864609837
H        11.47770124373720    6.71443006947465    7.07228798886255
H         7.89792196966411    4.57153266726058    3.06263712088088
H         8.49368765764919    3.01465886063455    3.65737580479755
H         9.38180721888369    3.89651536673775    2.40989787733336
H        11.63211426360097    8.46905312210255    4.59585967144273
H        12.51404168439496    7.33994552246793    3.57174276352913
H        12.97625298419711    7.55324768639410    5.26910161895617
H        10.60940445910236    5.29177515488813    8.76801792493647
H         9.62722450389086    3.87258639107580    8.35846118148891
H         8.88513257909240    5.47233860170253    8.47600370072580
H        10.93142177529005    2.11083864770831    4.02823052418952
H        12.66593587374391    3.60304921316076    3.56122417548808
H        14.49977395974545    5.08402762214294    4.28568277824818
H        14.94385541530558    5.38067377372906    6.69780167182503
H        13.65153226271695    4.17864722053891    8.35495803972093
H        11.59231470159819    1.04215597569194    9.25936054134137
H        12.56186613660665    3.83812831020472   10.03939662778872
H        12.30393679520872    2.46295384576588   11.10506306991748
H        10.93808407682859    3.18560242488891   10.25944406513896
H        13.78714769169407    0.84391214060632    8.04800938032442
H        13.86022858303214    0.80491564579005    9.80617186221120
H        14.37446770256663    2.24996259017339    8.94216812048102
H         7.12703539960785    0.78496580358503    4.24049366486622
H         5.99676194339021    1.65513113340201    2.20146446753906
H         7.19667714089944    1.62017155018196    0.04448687294569
H         9.48858887128634    0.72612391689295   -0.07421990710443
H        10.57794591507128   -0.17411208328388    1.93615449639865
H        12.40372390315062    0.27245229071552    4.36703275854852
H        14.31796754428251   -0.93909910662746    3.39770070944112
H        14.04299978321403   -3.26276437671833    2.61406459707112
H        11.83919523847901   -4.36196719472067    2.77502333167077
H         9.92181160447759   -3.15718016256873    3.71956969440808
H         9.59611307379899   -2.15769861119169    7.00007212741981
H         8.27912320459193   -4.13941097781774    7.62725736641141
H         6.39636211700188   -4.87092861692705    6.20937375264543
H         5.83612028182415   -3.61267063526805    4.16572417570180
H         7.16949069625528   -1.66200330565264    3.50648189719414

