96
CSD_code = GAJNIP | q = 0 | S = 0 | Stoichiometry = C41H48N4P2Pd | MND = 4
Pd        8.33460358217290    1.50146478038789    1.87746846821748
P         9.91710483422228    2.77938903766304    0.82042723013066
P         7.07484142022568   -0.25521441408391    2.69345082474947
N         7.36684206984474    0.99160144627730    0.05379700674427
N         7.29935416374943    2.29308004228602   -1.96855004722124
N         9.16759720924046    3.03163854017500    4.24334060500198
N         7.82371327176821    1.77712012190270    6.28073395938130
C        11.48263689375804    3.16076277739848    1.69954151700560
H        11.94567122072886    2.23679298001336    2.04463023698077
H        11.26789998194192    3.78257667803215    2.56463145411938
H        12.16687469800966    3.68529957210263    1.03300004641791
C         9.46262932277515    4.43255158182432    0.17813412139150
H         8.69502177302051    4.32696321760298   -0.58718091242830
H        10.33903019795944    4.90982880729206   -0.26068628348593
H         9.07686036689814    5.05166820844395    0.98842236244359
C        10.56332713154313    1.96482297631321   -0.68618575361095
H        10.96400110437437    0.98465253303387   -0.42450750910937
H        11.34589320108288    2.57453298492555   -1.13841376272266
H         9.74641591425190    1.82908528773137   -1.39372606212884
C         7.07189976195138   -0.91357338622727    4.40738656967520
H         7.02645434021630   -0.08502063366806    5.11360637429061
H         7.99082508270349   -1.46778509911225    4.58842592660575
H         6.21715115406513   -1.57445002286384    4.54546013084398
C         7.44502607783836   -1.76567782421040    1.72869657240711
H         7.33085627439475   -1.52500169885808    0.67250505266572
H         6.76889047628028   -2.57426068462918    2.00723233581404
H         8.47551946068738   -2.06955312653595    1.91474388054436
C         5.28019942588502   -0.05659495847483    2.38666617762836
H         5.14467454707471    0.29644111960573    1.36494347068376
H         4.86651575223961    0.67569369096959    3.07920505463390
H         4.76961308511407   -1.01096069930518    2.51581704811485
C         7.27073129193369    1.74811022226524   -0.85498331818660
C         6.77407149215023    3.44837703372247   -2.45878441559671
C         7.08278598830781    3.75974290065384   -3.79632310875986
C         6.60102383704511    4.92868250209028   -4.35209363636521
H         6.83831538210539    5.16249268678051   -5.38129450169536
C         5.82114693165775    5.80079153377962   -3.61015480691271
H         5.45033241239930    6.71281070740866   -4.05481959487522
C         5.51723680083855    5.49402533305294   -2.29583188472098
H         4.90638987030421    6.17303713980511   -1.71528662414623
C         5.97675089243957    4.33058136360271   -1.70277179796962
C         7.93658351924286    2.81046175575777   -4.58251332222747
H         8.94786179178650    2.78374444113388   -4.17409666605834
H         7.98836175363178    3.10831637296441   -5.62719619301019
H         7.53372292835678    1.80069615290186   -4.51588811505702
C         5.62806966297463    4.01272288341370   -0.27810033389403
H         6.52825705643143    3.94987359223375    0.33984467558990
H         5.11162921817266    3.05287713385544   -0.21404901044165
H         4.98198760992132    4.78332890188730    0.13734628715877
C         9.15021312318527    1.92642789837700    3.64526018002177
C         8.60021449978935    4.24665898468692    3.93569148314999
C         7.28574775313871    4.40119251766360    3.45120063356561
C         6.79426183862452    5.68112281453407    3.24503864312719
H         5.78667578726121    5.79881232658064    2.87206456494834
C         7.56468702215526    6.80072340132136    3.50224824062377
H         7.16695654210816    7.78788156308345    3.31939618923836
C         8.83846401657704    6.64668634598221    4.01874271226962
H         9.43647795613277    7.51604768704519    4.25359730209926
C         9.36007720600106    5.38603344111122    4.25679880981346
C         6.39871471191348    3.21898983206328    3.20110430860022
H         5.36249876099397    3.53882061019766    3.10593796518721
H         6.47663336665040    2.51133077858011    4.03321833623595
H         6.70227664185668    2.69823887495243    2.26253475778453
C        10.72840202866551    5.24738921570476    4.85878975090502
H        10.90080108632479    4.21775131573967    5.16349820183761
H        10.81943099998969    5.89639817567223    5.72857776701237
H        11.50027237298631    5.54152738089551    4.14636003001291
C         9.81220370260147    0.77535781904005    4.26307487839245
C         9.81876195043843    0.61240502518623    5.65769934119399
C        10.47262579369808   -0.47909369531342    6.21370863459636
H        10.46758692208761   -0.60860140522766    7.28681501201307
C        11.11158079088091   -1.40452220685042    5.40693365504059
H        11.61464240189750   -2.25032558975839    5.85202325735384
C        11.09885190821944   -1.25179978829804    4.02748536571467
H        11.59580119330644   -1.97875770946304    3.40107087020002
C        10.44715459681676   -0.17462535267920    3.45936301676629
H        10.42500988317907   -0.04746898728709    2.37123276619991
C         9.12222547859610    1.60127668582482    6.50290517966198
C         9.82089619824390    2.33144522354318    7.46147135080514
H        10.87094320380949    2.14368938093126    7.62623670050059
C         9.14566367740458    3.31512277822078    8.16276986872809
H         9.65733551469532    3.90358357707425    8.91137987479536
C         7.81277085745500    3.54871121934784    7.87712535366770
H         7.25937044605314    4.31924262916105    8.39085760999347
C         7.18418979637505    2.74634992711383    6.92495434070823
C         5.77713340876410    2.95675974846413    6.54914036145226
C         4.94144878942004    1.87063860562348    6.30400228716648
H         5.32613369274718    0.87148037293302    6.44258077123442
C         3.63531631985482    2.07048756664216    5.89853181632394
H         2.99232707705287    1.22165115942516    5.71462922814312
C         3.15049099458620    3.35671285393627    5.72566318256573
H         2.13139434920980    3.51240942329617    5.40321671406328
C         3.97743186863501    4.44218195357970    5.96334074473749
H         3.60528500975641    5.44629006469632    5.82164712599335
C         5.28267765507777    4.24641520465866    6.37505732663847
H         5.93323856897283    5.09460385870255    6.52940376028981

