54
CSD_code = GAJNOW | q = 0 | S = 0 | Stoichiometry = C27H21N2NiO2P | MND = 4
Ni        4.19691293160329    3.29316923030093    2.33203554955580
P         5.27203365209661    4.70857979455736    3.49727104762842
N         5.60568686148558    2.80235014204021    1.23944402155623
N         3.18197989838382    2.13239217239271    1.33079352371510
O         2.66053122225825    3.68111924265942    3.21467514452043
C         6.76039067572481    5.30016207446183    2.63318599846224
C         7.40794717994118    6.43993018917001    3.09685885615620
H         7.00965209307477    6.95176635470217    3.96156790397270
C         8.54039741456640    6.92468088488717    2.47001080413663
H         9.02928273499569    7.81162742110054    2.84338115681201
C         9.04261813719896    6.26350263531613    1.35705712854211
H         9.92673761240484    6.63365664589686    0.86045316173631
C         8.40926133964145    5.13527654873512    0.88344081471497
H         8.80499361201422    4.62912138141900    0.01427787001359
C         7.25424974942120    4.62702768697893    1.49898795692872
C         6.68127823499010    3.43581523490168    0.91497558283065
H         7.26931992732691    3.03572951393798    0.08443828831201
C         5.30787228160178    1.60181660044428    0.47596864937184
H         5.70755773377212    0.72778680119322    1.00475855968873
H         5.75288778815675    1.62968647593957   -0.52654307978793
C         3.76972605900518    1.39389336265151    0.38603506815570
O         3.27468034706562    0.64171400100455   -0.43271910412930
C         1.82806520372932    2.11944961579698    1.68276958060087
C         0.79661893343912    1.37724070056871    1.13318445120859
H         0.99135826379980    0.69532596975793    0.32106763320923
C        -0.47738029426513    1.53940087150206    1.65577346646646
H        -1.29595189576727    0.96913967466418    1.24183639343640
C        -0.71353823470527    2.42189290237882    2.69923938125216
H        -1.71512744281670    2.52974334612216    3.09065537142699
C         0.31265705276708    3.16804580767070    3.25556420871798
H         0.13472640572758    3.85222072508255    4.07152419518373
C         1.59849353149955    3.01316071007743    2.74995192315253
C         4.40398597623008    6.25968421079190    3.88543912150945
C         4.57013691888739    6.96422193238395    5.07208104627916
H         5.22311337265426    6.58283035548045    5.84529407647952
C         3.88186458288515    8.14922311757521    5.26679060231441
H         4.00807809348279    8.69633122007440    6.18977816627603
C         3.03017665461138    8.63172979394023    4.28664245357893
H         2.49287158285281    9.55456750578442    4.44769809482098
C         2.85691734254018    7.92629701156988    3.10601460906860
H         2.18251765038610    8.29630651020854    2.34821081844094
C         3.54143638512835    6.74287889742924    2.90630521728494
H         3.40168422237191    6.16205782989924    2.00090213701548
C         5.87442582827468    4.16029815670067    5.12249355958794
C         4.88541629779744    3.73270932138381    6.00754583685733
H         3.85194976629488    3.76142388513316    5.68513109777988
C         5.23272817094672    3.27843546465265    7.26470155988315
H         4.46707318356826    2.95343177024150    7.95335693758105
C         6.56797819461319    3.23447819060036    7.63885677180659
H         6.84163400125711    2.87727710877318    8.62055184610204
C         7.55237917875238    3.63834592863766    6.75257640902604
H         8.59206151318927    3.59172657116906    7.04221015415728
C         7.21186358378047    4.09845855128619    5.49121395973147
H         7.98288848935817    4.40646194797913    4.79888401687511

