54
CSD_code = GAJNEM | q = 0 | S = 0 | Stoichiometry = C27H21N2O2PPt | MND = 4
Pt        1.00742196322686    3.92165262466628   10.43218057731375
P         1.99995054077842    5.39601204839234   11.80759267394159
N         0.30140972131322    5.27811618841651    9.23808752951603
N         0.24447656625159    2.66111589772485    9.16124366541631
O         1.63462680942214    2.28463118607122   11.34682896165195
C         2.18099185842673    7.01722010058135   11.00811001016138
C         3.01490645526227    7.94700103757618   11.62427701144103
H         3.51621815511709    7.66522391148566   12.54005338752086
C         3.21692333591546    9.20341701870232   11.08879050864781
H         3.86848541835177    9.90807491610662   11.58244339621048
C         2.57366789442202    9.54879454649339    9.90692278821847
H         2.72046731575651   10.52771939283427    9.47633712381528
C         1.75173577393091    8.63939399025571    9.28104867602377
H         1.26117581588541    8.91812905941661    8.35933025145486
C         1.53142047479229    7.35058071846608    9.80058328264166
C         0.64634106403584    6.50825881825473    9.03426326987124
H         0.21773347662791    7.00712469221735    8.16286112539500
C        -0.64701291891836    4.68996694268872    8.30886427688692
H        -0.61180442718473    5.17800489361230    7.32679779386279
H        -1.66187036531460    4.81459824510932    8.70740792524815
C        -0.44744848526290    3.15191364905914    8.13524364800747
O        -0.92978176086255    2.57865472152624    7.17435786531453
C         0.51070265776167    1.32927758799976    9.47749056852470
C         0.11582716102666    0.21264160029906    8.75734038243477
H        -0.45100951213379    0.34110963822270    7.84869436753560
C         0.45583793002021   -1.04603467882118    9.22372903543835
H         0.14909775523562   -1.92021191045470    8.66892620063322
C         1.18475240767749   -1.18910950524416   10.39464266550426
H         1.44279575492230   -2.17696741278916   10.74863687677188
C         1.58674385570367   -0.08270703572007   11.12045510812275
H         2.15137758494101   -0.18675827620175   12.03502891038743
C         1.25447857489439    1.19648941703047   10.67581737722367
C         1.32549495927791    5.71742804142839   13.46249218426385
C         1.19298404892464    4.58300474098566   14.26340319320456
H         1.50260950950171    3.62508886707512   13.86290865153997
C         0.66797617788451    4.69336654761124   15.53580688428894
H         0.57003575776521    3.81708921870093   16.15902362478479
C         0.25833579275385    5.93184690086286   16.00869945182671
H        -0.15443759658259    6.01967749736263   17.00270282814003
C         0.36579992723532    7.05428384777996   15.20484273491601
H         0.03373710585392    8.01462948690668   15.57135013103378
C         0.89458321483753    6.95267509986266   13.92856184524720
H         0.97034612580129    7.82872917284059   13.29982187938428
C         3.72338243306575    4.91948149201248   12.13040576720135
C         4.40449245640366    5.17421882583439   13.31453237888762
H         3.90447400055575    5.67430800952211   14.13301203205922
C         5.71991628591993    4.76470543459849   13.44916705791602
H         6.24965014748548    4.95789323303282   14.37054578663128
C         6.35512059609881    4.10329358700912   12.41107963788613
H         7.37988622157728    3.78241340826627   12.52504815393158
C         5.67499532642229    3.84090477918640   11.23156293841458
H         6.16764960682902    3.31295739458586   10.42889607605451
C         4.36227159625684    4.24716185905223   11.09213828779378
H         3.80145745420008    4.03300853118566   10.18451123338864

