72
CSD_code = GAJQEN | q = 0 | S = 0 | Stoichiometry = C27H42N2Zn | MND = 3
Zn        0.01627880158959    0.52764539665243   10.76706103739907
N         2.27557603074390   -1.49715844188918   10.03853702033370
N         2.56645551879443   -0.76098297276844   12.02290170522822
C         1.73099117869857   -1.71135209923028    8.73048578295163
C         1.75770582597497   -0.67284921545106   10.95869549379022
C         2.38446552557677   -0.04775292293192   13.25237784135138
C         3.59756133479160   -1.64031475365628   11.78185336529994
C         4.64373003096945   -1.93341513468412   12.79410891644740
C         3.41284548326787   -2.10888710143290   10.51490109198470
C         4.19590050928284   -3.07286828626658    9.70090928484201
C        -1.74858431442839   -0.41813862822823   11.44693704322557
C        -3.02448743486037    0.39512354058568   11.41694478866959
C        -1.15063588869189   -0.83006742243359   12.70841358605631
C        -1.30226652802982   -0.05826308273970   13.98478639495894
C        -0.56450243175675   -2.06292928393116   12.52905233234693
C         0.19051551406929   -2.88056821880112   13.52995822276852
C        -0.80871360118204   -2.50042386778249   11.19618859027059
C        -0.34201524452556   -3.82142897844508   10.66958004194825
C        -1.54674899013681   -1.54159278537535   10.53904693770338
C        -2.18122706158440   -1.63862431099975    9.18413153847698
C         2.47507726076520    1.82247864094481    9.21014807628089
C         3.64058406761410    1.31615084972412    8.41915677893542
C         1.15633146136725    1.90321391596479    8.82230417951481
C         0.57673514764093    1.63764879722921    7.46533564996552
C         0.38292188394989    2.43669421183047    9.93381443976791
C        -0.81621628072970    3.32813823026142    9.69417242148338
C         1.36030273192153    2.74627653498367   10.97101596559758
C         1.03256502159802    3.50806424543301   12.22001996403516
C         2.60038873190183    2.34118071207067   10.53015314042529
C         3.90838627030261    2.43756100537206   11.25129433909423
H         1.51382326354028   -2.76903418950285    8.57794222289219
H         3.26564926236577    0.55431345342858   13.47636657766790
H         5.19034465000621   -1.02749093794315   13.05663300957774
H         3.58501627150672   -3.93426714917198    9.43037249330212
H         2.43532315531464   -1.37867679952904    7.96687167450869
H         0.81008277900186   -1.13799723310658    8.64369195157504
H         2.21138397481419   -0.74473755603681   14.07345035785015
H         1.51962408349013    0.60428537173874   13.14649258885855
H         5.34937438890951   -2.66254879270383   12.40681148040629
H         4.19626198175270   -2.33260241884834   13.70431458668434
H        -3.85425127031532   -0.21944492264701   11.77375583461871
H        -3.26370803515953    0.72926608038893   10.40987814681949
H         5.05934985675916   -3.42330928962148   10.25876979264944
H         4.54394909443872   -2.60423849080577    8.78041422146446
H        -2.95545310784553    1.26990449443095   12.05996835097413
H        -0.53879737840297   -0.33268729638993   14.71007195708890
H        -2.27682185992833   -0.26182942830089   14.43446045954235
H        -1.23561669170161    1.01558326936076   13.81031176705083
H        -0.32740649928387   -3.82275337901992   13.71443705977400
H         0.28247867944415   -2.35866370349790   14.47970496127048
H         1.19079040853392   -3.12540900587672   13.16547355583328
H        -0.85766152383551   -4.63557033913543   11.18156786960506
H         0.72796089939814   -3.95658114039764   10.83959768311911
H        -0.54372707048419   -3.91633120898340    9.60504910884534
H        -1.62548170615086   -2.30837546927132    8.52974439821641
H        -2.23926267849452   -0.66235218375150    8.70326655712795
H        -3.19837484185015   -2.02762356439908    9.27075563579469
H         4.36480925391296    2.11645214917117    8.26123834574897
H         3.32871690202265    0.95087318934714    7.44341458557230
H         4.15618646516055    0.51083685650409    8.94733730149205
H        -0.42180581673224    1.20661493608860    7.53679229315890
H         1.20088230633378    0.95557319672983    6.89138143301892
H         0.49656781059545    2.56974146393939    6.90126668730778
H        -0.48078887880091    4.28499189101170    9.28743989066207
H        -1.35884808721247    3.52739565327166   10.61555084237906
H        -1.50665248696631    2.88460781449152    8.97997584690878
H         1.05588318443912    4.58243788606780   12.02352323067692
H         1.74872350057722    3.30124432584286   13.01370510332854
H         0.03657924999388    3.25934814119616   12.58582731896609
H         4.56063387313089    3.15867269660921   10.75587824728945
H         4.42779631118305    1.47723553420590   11.25322322151916
H         3.76994577141740    2.76468752115535   12.27928537755779

