40
CSD_code = GAJQEP | q = 0 | S = 0 | Stoichiometry = C15H16Cl2MoO4S2 | MND = 6
Mo        2.64357940991961   14.40364837764477   12.31689757606114
Cl        1.87414416470785   12.76747381623957   13.83911367882458
Cl        2.49259364066247   15.26048991859471   10.19839370181584
S         1.39028564216397   12.21859163327861   10.21784422484098
S        -0.48740082234091   13.05020984756944   12.21748406385114
O         4.25998384537491   14.18639153100699   12.44526049799726
O         2.18242695577928   15.69652976246306   13.20676737412940
O         2.55205052958387   12.54027028577506   11.08173615419606
O         0.48914107285344   14.06762348554663   11.71889858985067
C         1.82014112785468   10.59688382096376    9.55045275556946
C         2.91015779633180    9.91796601517519   10.06110963812882
H         3.48334091724023   10.36930598712864   10.85722663444595
C         3.25178742166485    8.68573727375935    9.53298835164397
H         4.10408780154780    8.15475006478719    9.92940972831940
C         2.51408802498000    8.12832620307707    8.49472371339110
C         1.42259156813095    8.83277630083828    7.99067914345089
H         0.84818946067819    8.41095809196183    7.17933563894933
C         1.07503607939375   10.06570284957123    8.50941591073425
H         0.23635192722094   10.61777834504290    8.11156035279674
C         2.87279161259737    6.79296938055738    7.92393285973733
H         3.84561866822901    6.46473041674170    8.27867029095331
H         2.88855572901585    6.83339017102484    6.83675789950902
H         2.13098682926279    6.05051102295838    8.21737845653352
C         0.17385725875453   11.51892492683002   11.42417329764628
H         0.71825863631465   10.94052351840449   12.16787098269648
H        -0.59980598896719   10.94411950696259   10.92741878238979
C        -1.82028759595760   13.24080169953659   11.00655833025208
C        -1.61496157776061   14.00040501798139    9.86892755019034
H        -0.66255561243956   14.48902311249937    9.71880409947409
C        -2.64283182012691   14.14217332569034    8.95306702573008
H        -2.48442407406147   14.73826500209619    8.06706905347248
C        -3.87685281989780   13.53783899555712    9.16629640956495
C        -4.06435412350974   12.78308526347055   10.32213964631885
H        -5.02159578063027   12.31719810406597   10.50277791757878
C        -3.04459523172743   12.63519209383804   11.24349072252536
H        -3.19167855132729   12.05943831263827   12.14462621956978
C        -4.98709493216735   13.68294793244306    8.17424885475649
H        -5.93367799236622   13.85913408559710    8.68012757481850
H        -5.08757583284353   12.76720336062395    7.59154355405623
H        -4.79385336414553   14.50371114006192    7.48932274324757

