48
CSD_code = GAJRAM | q = 0 | S = 0 | Stoichiometry = C16H23AgN4O4 | MND = 3
C         3.86966797268833    0.58697579635305   10.75180475207194
C         3.34783658074192    2.69435116953748   11.95262267608104
C         2.62012696107357    3.18767972614683   10.71563132749574
C         2.68837782732381    2.23809591558902    9.53368744101792
C         3.22998549442056    4.54141293797824   10.30047164181942
H         2.65833615509821    4.92581443020909    9.45419199340381
H         3.13325815017611    5.23260707757719   11.13967924894534
C         4.69709961509638    4.40848167071866    9.90922625142799
H         5.28930612260160    4.05410181837486   10.75076974685759
H         5.09034041780203    5.37333611956063    9.59665120254900
H         4.80991800137602    3.70638818453289    9.08470567809163
C         1.13146809898472    3.37437565156505   11.08193154299578
H         1.06832877804530    4.09333472692092   11.90093024734944
H         0.62063396788309    3.78650393873302   10.20966351268694
C         0.46965997905935    2.06457420686717   11.49536642882881
H         0.56746118086971    1.31812263256149   10.70774653909058
H        -0.58859293605649    2.22490245994464   11.69078167427598
H         0.92740251385711    1.67107156533717   12.40077847313705
C         4.04283050292211   -1.02790045403405    4.99419303269416
H         4.93163326596584   -0.74763460886519    5.54051232436775
C         4.11726388728932   -1.48964999418619    3.69304173839069
H         5.06842317715355   -1.56978131101709    3.19234768950561
C         2.94620792492824   -1.85125071800783    3.04857091873470
H         2.96134938467282   -2.21934321328227    2.03134026871484
C         1.74185354134806   -1.73789043113180    3.73215078628234
C         1.75765962410957   -1.25201730439684    5.04900455880775
C         0.47605150259024   -1.13617800716549    5.82855927586275
H        -0.37304603114639   -1.16267129657846    5.12776817510768
H         0.40634147047704   -2.01114021389078    6.48328345457950
C        -0.60870530677823   -0.01002914250923    7.64817097584329
H        -1.59838867238521   -0.10181840358482    7.17662219305829
H        -0.58890120518012    0.89765583717364    8.24781476056076
H        -0.44853158408697   -0.86461399570303    8.30414322561698
C         0.27332247941975    1.24576708810590    5.82905530638667
H         1.04462897235627    1.27851072425454    5.06172777653548
H         0.37083547346485    2.13192197362379    6.45193809698027
H        -0.71225878573421    1.24617056031719    5.34093789755882
N         3.26734329846121    1.03662034435943    9.63389596496144
N         3.90291817194371    1.45408054701777   11.85657616359764
H         4.38266362442661    1.09559607510393   12.67530539722500
N         2.89145279023771   -0.91337851908702    5.64828215330351
N         0.45688793987270    0.06147434512247    6.65954338345488
O         4.37784551362570   -0.50890749520600   10.84524794749471
O         3.43002392953494    3.34497374384131   12.97032357644327
O         2.17761407201932    2.56400539302553    8.45760986033984
O         0.55396648698436   -2.07736589831691    3.17675027057146
H         0.68511399882263   -2.38697660678461    2.27130987205507
Ag        2.77038567168247    0.24574095328063    7.63073257684952

