63
CSD_code = GAJREP | q = 0 | S = 0 | Stoichiometry = C28H29Cl2N3Pd | MND = 4
C         3.17832933029593    2.15800983503609    5.27226539956518
H         2.72958243034996    1.21220841888614    4.93991746064358
C         2.08327540281739    3.00387523991977    5.97460645476239
H         2.57307246519668    3.95644681680956    6.27068103652241
C         0.94437155277525    3.33120354838767    5.01681625285053
H         0.48951210711430    2.41746311514486    4.63390794965485
H         0.17511493833923    3.89759208925038    5.54442995231615
C         1.49518563931752    4.13946919156351    3.84500908915302
H         1.92696183691470    5.07266821922440    4.21104864223008
H         0.68384634210171    4.38945616517874    3.16055639816977
C         2.56386280105877    3.33295820146547    3.11427830617456
H         2.11317127246480    2.43025219731512    2.69469019875585
H         2.97113709245487    3.91683074993575    2.28826971527470
C         3.69303495293376    2.94583520074179    4.06463802069849
H         4.18775657680379    3.84851973452080    4.43627315239385
H         4.43582621723478    2.34805840027230    3.53196071190850
C         2.48055001737334    2.51761340791935    8.30246874321277
C         0.52372163041267    1.70682464318461    7.58738724961367
C         0.64756095788920    1.44483848709092    8.91845087883557
H        -0.02654885060589    0.93670566804602    9.57630213921070
C         2.40799539436689    1.83751798051313   10.66904782141121
H         3.32475997810640    2.45530547397329   10.65103447630923
C         2.80346626465945    0.42424902406831   11.02970255886194
C         2.83833162104693   -0.60290666643117   10.09748564648914
H         2.55766240775010   -0.41973502462085    9.06955007024279
C         3.23780861704483   -1.87544921534076   10.47088972288199
H         3.25731931881188   -2.66671841977357    9.73546935892669
C         3.61150673026477   -2.13428427596769   11.77674066986368
H         3.92162011887529   -3.12724748497575   12.06584395769173
C         3.59369942614170   -1.10984153480724   12.70935735040210
H         3.89431477839387   -1.30116271762975   13.72857929976028
C         3.19589576669837    0.16007429519608   12.33798497994821
H         3.18805127819964    0.96081978536873   13.06232633484955
C         1.42385867120845    2.46360300049536   11.63522062499630
C         0.43897220971725    1.71082379047250   12.26093128436548
H         0.39697659966792    0.64091329666988   12.10905823466804
C        -0.47786172665553    2.32459321506660   13.09681445442208
H        -1.23837967128005    1.73276867407128   13.58525080203915
C        -0.41993464846026    3.69187632219365   13.30638904319216
H        -1.13574469602050    4.16790726435708   13.96039505919603
C         0.55836305642782    4.44559048007302   12.67896122342189
H         0.60760283614539    5.51165565855931   12.84226733163778
C         1.47751032209703    3.83624219039092   11.84326804070193
H         2.24623558606535    4.41473139363776   11.35016690588236
C        -0.58075723239379    1.28819027647083    6.72090112220248
C        -1.87323476662007    1.72724213458305    6.98876755446505
H        -2.04008378943300    2.40786318624313    7.81029768652209
C        -2.92992877692791    1.30247367412857    6.20381643382026
H        -3.92898703164761    1.65317318963255    6.41450820075904
C        -2.70925044458489    0.42983520893281    5.15157689305862
H        -3.53465235780164    0.09962903093650    4.53937999313458
C        -1.42778953430210   -0.02677991827660    4.89084259999442
H        -1.25423209748950   -0.71868568177623    4.07997461184708
C        -0.36869963621757    0.39673516890725    5.67204313264877
H         0.62756308003578    0.02278558512220    5.48104653326071
N         4.28396927069060    1.89478401829348    6.20021175695464
H         5.17585607937045    2.28769155897968    5.86913624079164
H         4.42160256938177    0.90565491709267    6.39139856264464
N         1.67261497092808    2.38330220985820    7.22417802482589
N         1.85644603258642    1.93456311463676    9.33012307111076
Cl        4.36424707730453    4.53010993343288    9.70839068276775
Cl        6.42667790037692    3.64750315280933    7.30052115512922
Pd        4.32558373422750    3.13097340453925    7.97579273995428

