58
CSD_code = GAJVET | q = 0 | S = 0 | Stoichiometry = C19H27F5N2O4Pd | MND = 4
Pd        4.38378260273488    7.24653598320485    8.25217004004294
F         6.20120582855386    4.64697576192343    9.17562275704236
F         8.94720197942937    4.52852844204643    9.39144352254301
F        10.45128207177296    6.67211944870182    8.63671113594186
F         9.24396356016695    8.91405292589202    7.64070104756936
F         6.45724470777091    8.98453788502246    7.47723827267602
N         2.36502747608927    8.00567616224572    7.83467768912959
N         4.20958175451321    6.35555404872460    6.28587097012378
O         6.60997546196936    8.80754863922475   10.58030458433935
O         4.80436515167557   10.12730531557258   10.24805750032500
O         5.45919188496847    6.25056245770535   11.72983959902530
O         3.70397952361795    5.66858742877377   10.43054245941982
C         6.31455135947274    6.85424376013389    8.40366328678563
C         6.96129991680227    5.72232767255496    8.86186674321510
C         8.34548236131031    5.64465362505874    8.95556102264756
C         9.11436136598736    6.73587881293739    8.56436612975442
C         8.50006904348204    7.88141659651989    8.06311885627116
C         7.11887096141945    7.90619090214393    7.99496567875563
C         1.93557650538052    7.32423645829558    6.60779148361754
H         1.46433119937839    6.37906529510430    6.89339039996430
H         1.17634636882524    7.92645165820383    6.07985256387993
C         3.08838410417363    7.04387504104941    5.64136980605010
H         2.70133469344565    6.44603375997961    4.79871105065597
H         3.46234609337987    7.98765377129638    5.23286269338673
C         1.26580736839863    7.94996767533214    8.79622991948723
H         1.12478865466062    6.92419353407217    9.13921136548883
H         0.33047934769746    8.31274614628522    8.34737471902245
H         1.48799551392459    8.57382923021622    9.65979904420475
C         2.71485274101690    9.40729711337922    7.56633458261411
H         3.56576743820963    9.46583121867242    6.87958280914372
H         3.01030385181197    9.89193095186443    8.50013172567120
H         1.86220600159224    9.95024722477734    7.13224448823370
C         3.86220488630474    4.97390717587082    6.63467620711941
H         4.74227759110109    4.47141655221395    7.03891316854586
H         3.51171847864358    4.42073437786382    5.75126471039267
H         3.08672445831693    4.95774680673213    7.40566038865934
C         5.35776955366304    6.36103667199058    5.38212144138767
H         6.18667259180586    5.81638621358569    5.83273712138387
H         5.68150797060658    7.38580763335579    5.19604088523679
H         5.10485562135632    5.88816088832788    4.42308751211187
C         4.43046616194609    7.84926137671867   10.21767037451649
H         3.42050440943388    8.21407901790045   10.42579034000315
C         5.42352572654523    8.91643361672013   10.38786787415814
C         5.62734627547200   11.29133612504900   10.25736357139288
H         5.25659445355243   11.93924915891024   11.05824690104463
H         6.65406205737601   10.98511421412460   10.48245506145947
C         5.55823769322853   11.99840875582112    8.91133096535439
H         6.20236339970197   12.87287701378744    8.92650040903009
H         4.53884240578118   12.31319115237053    8.69869941098486
H         5.89175259124516   11.32762096079631    8.12448644559220
C         4.64938684054494    6.54967744378346   10.89651766933961
C         3.68401574816705    4.38361810948515   11.05147960504689
H         3.22303045295743    3.71314578750504   10.32247859910226
H         4.71378596982521    4.06801899174246   11.24234163022663
C         2.89325710305608    4.41073540045935   12.35273303730658
H         2.84916743990348    3.41128084660008   12.77593440841103
H         1.88017907709396    4.76696315113398   12.17675272541183
H         3.38109414878381    5.07183761020492   13.06434158976498

