31
CSD_code = GAKBID | q = 1 | S = 0 | Stoichiometry = C11H14CuN4O(1+) | MND = 4
Cu        0.23517435458775    0.59072480570558    1.66289466475150
O         0.75996049839634   -1.08873353997317    1.20025236509645
N         1.94503583359632    1.44623228066870    1.54033626756292
N        -0.36247385250241    2.38705469899256    2.06462112240697
N        -1.62274546322406    0.11703701289195    2.08863703262661
N        -3.72190316465982   -0.43468378199456    2.22054238324701
C         2.23301587299753   -2.90430065367356    0.89657427270988
C         1.98357884671317   -1.43583335715399    1.11414292857827
C         3.09083007155001   -0.60288355858560    1.19769643025805
C         3.06738854902648    0.78624355911153    1.35853144187624
C         4.36578941282318    1.52989555762873    1.30878700704931
C         1.89119493906055    2.89790551688880    1.54594204878468
C         0.47928427195370    3.30981128060318    1.73081125836987
C        -1.59038872867597    2.45027825298825    2.53877288266188
C        -2.34203311004436    1.25632588542300    2.40774182207899
C        -3.66931901559301    0.89688541604479    2.50691735695655
C        -2.47984997464649   -0.87461063529772    1.98125154989337
H        -4.55820603810567   -1.00019098006608    2.23840992519435
H         1.29088721079696   -3.42093777023549    0.73880492703020
H         2.87992497906712   -3.05365829519692    0.03617251725592
H         2.72848014876887   -3.32340361226924    1.76999728558850
H         4.05616465122091   -1.07075813222805    1.09856979041795
H         4.38014041082900    2.20458506137360    0.45338495418655
H         5.20110798116438    0.84339864349440    1.22192949111629
H         4.49375732995753    2.12956296829244    2.20901449821031
H         2.49866234701653    3.27914908976063    2.37997745451785
H         2.30336262812596    3.32656496518275    0.62124189506601
H         0.16277897243361    4.32118826270468    1.51572719742920
H        -1.93722640279164    3.30124319278218    3.10418904889505
H        -4.53994186066429    1.48629510544855    2.70115505421116
H        -2.21783169917843   -1.88698723931175    1.74707312597169

