48
CSD_code = GAKBAW | q = 0 | S = 0 | Stoichiometry = C15H16LaN7O9 | MND = 10
La        1.88521528678541    4.07719185486109    6.10722678182319
O         2.67728676777118    2.69363471610976    4.46958259083141
O         2.61864410792566    1.91172524357878    6.43742705978210
N         3.08524807934076    1.85817421618157    5.28622562965715
O         3.84202419404068    0.99182359098863    4.96809513693633
O         2.77193434513853    4.07537184620557    8.16574516047947
N         3.93207890540322    4.07273846526889    7.72056601708620
O         4.86841739018002    4.06907306267825    8.45807596696217
O         4.07469884281956    4.07394019294700    6.49019883513129
N         0.22491360479480    5.71732805807674    7.57061001654930
C         0.43424610997590    5.93268350793964    8.85893148469491
H         0.94997789663200    5.14898009997024    9.39364899650227
C         0.05340177044061    7.09667328356513    9.51796805709750
H         0.26569026458381    7.21949179432566   10.56806059221410
C        -0.59068987216628    8.08847394861035    8.79911201914746
H        -0.90416499685202    9.00675209821543    9.27278653248192
C        -0.81059686135940    7.87954673706781    7.44836302524396
H        -1.29485362170734    8.63150585378544    6.84372970642570
C        -0.37638003531229    6.68782987000937    6.86835359589796
C        -0.53204559326993    6.48683418673161    5.43099605877911
H        -1.06378994849589    7.28155835123082    4.88952555302942
N        -0.04667952396298    5.47836137943820    4.84123636254268
C        -0.20737043184544    5.35567400370084    3.41911007672183
H         0.79783043663858    5.29795390764075    2.98808830909753
H        -0.73792007713057    6.22505800265824    2.99798815601597
C        -0.97296733183624    4.07804903334706    3.06505060397850
H        -1.16114972154122    4.07868658392509    1.99061474403693
H        -1.93528447166884    4.07682679848848    3.58379348176479
O         2.67682699743565    5.45917947404347    4.46868217419535
N         3.08984343493182    6.29289521325437    5.28470190285848
O         2.62603943558947    6.24039858533684    6.43700411467888
N         0.21791243384097    2.44266751948590    7.56950458365670
C         0.42289892127630    2.23032228261846    8.85898832687179
H         0.92929585581222    3.01888932784552    9.39541827481564
C         0.04837720739785    1.06400794777703    9.51751832106143
H         0.25711522092193    0.94386041683078   10.56865000889469
C        -0.58469407179205    0.06649140132054    8.79684795773675
H        -0.89298463671509   -0.85379779967179    9.27003885551728
C        -0.80148997787363    0.27286802922305    7.44520818079510
H        -1.27807286602987   -0.48302020470193    6.83938282700589
C        -0.37396404090960    1.46728446049501    6.86591866014486
C        -0.52741108543586    1.66704875054566    5.42815286790169
H        -1.05562397722845    0.87060754936884    4.88579284998926
N        -0.04505648667401    2.67761101944614    4.83953255079443
C        -0.20500432239850    2.80139151228838    3.41746360890473
H         0.80034970041314    2.86154699420477    2.98711747560987
H        -0.73355945948605    1.93145778423891    2.99501763008514
O         3.84928620159840    7.15634904849605    4.96504827756503

