49
CSD_code = GAKDUT | q = 1 | S = 0 | Stoichiometry = C23H16N6O3Re(1+) | MND = 6
Re        1.47664339169910    3.82716853677642    0.85132402937796
N         3.13260410367183    5.10414867551615    0.38323544825640
C         3.30078325960780    6.33957367692027    0.84969958382423
H         2.49188712421644    6.74558018453128    1.44356163139774
O        -0.24426643282061    5.07575810919874   -1.39953876360503
N         2.62088213020254    2.70233226234623   -0.56877002676590
C         4.43044187206548    7.09757612409260    0.59745202154567
H         4.51149130217965    8.09478214509407    0.99726334261417
O         0.23324798150462    5.65044579789236    3.02444250575142
C         5.44008983831975    6.54535456693285   -0.17561119860821
H         6.33933793692741    7.09973451004965   -0.39258426855538
N         2.86305596260625    2.95364996764099    2.34824487657798
O        -0.60050133065727    1.61028399041229    1.45309468857650
C         5.26715040992021    5.26759056825674   -0.67640146667262
H         6.03560308482625    4.82630584767781   -1.28832173075953
N         5.48562006209157    1.34213649491614    5.11769473344755
C         4.09721764470968    4.56708626289846   -0.38839375281620
N         5.44583171221691    0.81192665198572    6.23141568600623
C         3.80914162258723    3.22718262337061   -0.92448611565757
N         8.87237005984613   -0.44866599823751    8.19335156088741
C         4.67605468944302    2.54424191424701   -1.77569468933220
H         5.62624655949196    2.97026065717808   -2.05012170864298
C         4.30839798631920    1.30947945802446   -2.27920409430381
H         4.96826921251266    0.77114069718886   -2.94087104379919
C         3.07341938548161    0.78886079761393   -1.92443871408928
H         2.73578220675473   -0.16198640691904   -2.30223318068127
C         2.26887688415914    1.51949653488442   -1.06824940728394
H         1.29607269502352    1.14335454454813   -0.77827999622776
C         3.10012908934210    1.63427465696290    2.41014087931476
H         2.59323584731502    1.01268597265736    1.68255846690617
C         3.91349218208917    1.04171736279057    3.33827301139214
H         4.05504763152725   -0.02650113080124    3.34047110382692
C         4.54358470238351    1.83616270191818    4.32136301713035
C         4.30469228698930    3.22587818638548    4.24203502083838
H         4.75343398862538    3.88983536521146    4.96246247484365
C         3.47394517327669    3.71449153313631    3.27019305128438
H         3.27269811771185    4.77785898664291    3.23583046660318
C         6.62570481570046    0.40010758537128    6.82502531168779
C         7.89970880383208    0.83992638719008    6.44292734749543
H         8.01400138000863    1.53268223304593    5.62321199243061
C         8.98414334406957    0.38146533542223    7.17043967228677
H         9.99120133423972    0.69198445631916    6.92768243170161
C         7.67241471544801   -0.86721959736901    8.55233146535603
H         7.64421436025448   -1.54261671110491    9.39582452708327
C         6.50749064544263   -0.47035116362502    7.91321553385034
H         5.53609703577743   -0.82083273029997    8.22148673064624
C         0.36631447223261    4.61260097355055   -0.55729074830669
C         0.66026339579855    4.96586094543180    2.21743014246025
C         0.13893532304735    2.45218945611969    1.23770815065196

