27
CSD_code = GAKDIF | q = 0 | S = 0 | Stoichiometry = C6H10Br2HgN6S2 | MND = 4
Hg        3.58562383498328    1.74673495756733    0.62944338866902
Br        2.40871083457341   -0.10080375866427   -0.44801149487020
Br        5.13967499558429    3.62785575498344    0.68991801206364
S         3.11539262672438   -0.24105818092468    5.02248783774470
S         1.04131291220386    3.45170117248694    4.38311378254652
N         3.89183239099599    0.57403263413975    2.72208171927837
N         1.96779734632223    2.79592738448961    2.08741236137456
N         4.28220664472448    1.51627003892239    3.59353302175128
N         1.12231253124965    1.81357112608120    2.43340274436575
N         2.80708807452521   -1.49979184533310    2.64128715674560
N         2.80297296676196    4.84188094737309    2.86217241441452
C         3.25968627281657   -0.42542361207496    3.28197280706646
C         2.06279482483437    3.74341323151995    2.98473744705888
C         3.98546241018998    1.28875918021803    4.81042751550986
C         0.54980346402087    1.96027403854694    3.56105384290088
C         4.29941181063190    2.18056856053489    5.94434667147313
C        -0.40912015411751    1.01010335403639    4.15883064877479
H         2.21053419202417   -2.14908682018517    3.12319884276890
H         2.74227985942655   -1.45900259732727    1.62944149516007
H         2.93017818659230    5.44431955725108    3.65603957251658
H         3.51157219841600    4.85992446496410    2.13597037485083
H         4.84354923529641    1.63603554937338    6.71384619689163
H         3.38181963975199    2.56803646155750    6.38710527623450
H         4.90750650858859    3.00643927882077    5.58481308191638
H        -1.33089688970429    1.52260674774553    4.42816577810904
H         0.00972765236351    0.56727223467815    5.06260970316377
H        -0.62583436978376    0.22744013930142    3.43659980147174

