47
CSD_code = GAKJOU | q = 1 | S = 0 | Stoichiometry = C20H20Cl2N4Rh(1+) | MND = 6
Rh        8.24169196970954   11.89570119035309    6.68095020206356
Cl        8.24106989311900   12.09872908973967    4.35098444627882
N        10.27361192294515   11.89557703894029    6.68113323392436
N         6.20969538995072   11.89587576323123    6.68111334142424
N         8.24287144829574    9.87140061264631    6.50449375217736
C        13.05590746983323   11.89537511795707    6.68179094675424
C         7.47701543428578    7.73022537657635    7.22732688592713
C         8.99115339151249    9.26389129676818    5.57904198839313
C        10.95993467466566   11.07794317354695    7.48479782998912
C         7.49823455841015    9.11087692569586    7.31226897014040
C        12.34268321061048   11.04965436597292    7.51617938366650
C         9.02082293119291    7.88911995855212    5.42772884271721
C         5.52282115622011   11.22664087588430    5.75067033599859
C         3.42725649861268   11.89595164822034    6.68184840377534
C         8.25131721270986    7.09927075259631    6.26684832473449
C         4.14001894727409   11.20416055405870    5.71563656807769
H        10.38903769533673   10.43804806874505    8.14456551917746
H        12.84536591879504   10.37318192873590    8.18825465851177
H        14.13454564757221   11.89528430308368    6.68203251948855
H         6.09307260984047   10.70777942576238    4.99158453590962
H         9.63912641853902    7.45212518636153    4.66045656831895
H         8.25491956813613    6.02454919616766    6.17539919924729
H         9.57092675334423    9.89501575619013    4.91856704056963
H         6.86148404638836    7.16517881342962    7.90842720211647
H         6.91468187122408    9.61695382839220    8.06983834810337
H         3.63697090884375   10.65175118928918    4.93862901977415
H         2.34860529115480   11.89597448875226    6.68213463521581
C        10.96040920960176   12.71311096025641    5.87779419039123
C        12.34318099543541   12.74119482502400    5.84706442491124
H        10.38988078659830   13.35309856261588    5.21779019711112
H        12.84627660554132   13.41757309706804    5.17521145158624
C         5.52332531112258   12.56516921950341    7.61190930550299
C         4.14054826061629   12.58772016120529    7.64767901711767
H         6.09395080562516   13.08402288977781    8.37071188112158
H         3.63792366675033   13.14016324144817    8.42493927296959
Cl        8.24120821298656   11.69303462777969    9.01095940553564
N         8.24254505279993   13.92006949015348    6.85675193809589
C         7.47656184334642   16.06077863126004    6.13259180591987
C         8.99069361742888   14.52817481573805    7.78191442767931
C         7.49786986241061   14.68007774144177    6.04849669829726
C         9.02028647662061   15.90304696258527    7.93237316559875
C         8.25080764288427   16.69235564182874    7.09270857067965
H         9.63851942064773   16.34055985205826    8.69940768215319
H         8.25437243734654   17.76713504755873    7.18347357104355
H         9.57043814739250   13.89745069076254    8.44280447635036
H         6.86101293431340   16.62536392800149    5.45111110802926
H         6.91434587201086   14.17356368828383    5.29120470742999

