47
CSD_code = GAKJIO | q = 1 | S = 0 | Stoichiometry = C20H20Cl2N4Rh(1+) | MND = 6
Rh        4.00435615314680    5.44984253536013   10.25677841849643
Cl        2.57911171048096    3.59683442038659   10.33358687576036
Cl        5.42909415298994    7.30319220744046   10.17798003651822
N         5.17800277278260    4.60713327618301   11.68611049034309
C         5.70199802603407    5.34682582911562   12.66778299831674
H         5.49364412934861    6.40840659763068   12.65324878206585
C         6.50578721816628    4.81131691809879   13.65827172705029
H         6.90626187520601    5.45569827689469   14.42402386582755
C         6.78241877784759    3.45360899691642   13.64481864446929
H         7.40420879052528    3.00636185369707   14.40429398685944
C         6.23710448036079    2.68714723670686   12.62731323145842
H         6.41675638593761    1.62584364540734   12.56962317610567
C         5.44614776360307    3.29821129253147   11.67082312868828
H         4.99676264926483    2.70966547957470   10.88201541187652
N         5.10877642645938    4.53822327851515    8.81528466246936
C         6.44308542128222    4.60866111750120    8.82599122802814
H         6.90214737248823    5.18910772545030    9.61521590768177
C         7.23041447416108    4.00065884649015    7.86461203920890
H         8.30294741694174    4.09386217441321    7.91919740085475
C         6.62253021464156    3.28327915739416    6.84679050292906
H         7.20944996063241    2.79622831521806    6.08406780782266
C         5.23882025238927    3.20996233727897    6.83723729399452
H         4.71351306184083    2.66329800436137    6.07094020455496
C         4.52146752670117    3.84943174036160    7.83244433454114
H         3.44163509525267    3.78449702674229    7.84972307201915
N         2.83060299649601    6.29271977858042    8.82836993843219
C         3.36935950663002    6.93110746712703    7.78550950791066
H         4.44870256145220    6.99539987229226    7.74766173196794
C         2.60443570007545    7.52140117662030    6.79540636914191
H         3.09174018453613    8.02838354900232    5.97841536666002
C         1.22284174184659    7.45079068955385    6.87516169580243
H         0.59960015678653    7.89999341016432    6.11804248959760
C         0.66524240712362    6.78634137628540    7.95575329742864
H        -0.40334284318592    6.69787262205415    8.06657239727700
C         1.49844796468596    6.22548781670542    8.90710533974742
H         1.07836469632707    5.68619821991488    9.74570605673770
N         2.90273543619678    6.35990160401052   11.70182545763499
C         2.63116991208264    7.66663037260486   11.63794940274248
H         3.03700439040274    8.21648117353684   10.79919008775718
C         1.89007612940608    8.32299475715446   12.60430485010028
H         1.70545461014989    9.38040779542614   12.50548138245817
C         1.40061870045078    7.60629411960685   13.68456102421523
H         0.81898757774227    8.08976713503763   14.45358939571226
C         1.68003818401264    6.25059252924762   13.74807943907843
H         1.32159832844553    5.64366273992909   14.56365123948175
C         2.43194813437730    5.66806429192514   12.74350292372209
H         2.64093141547334    4.60680921355065   12.76848537845308

