82
CSD_code = GAKJEH | q = 0 | S = 0 | Stoichiometry = C39H37FeO4P | MND = 8
Fe       10.89474845396702   -1.22235279689614   12.84414234454117
P         9.91090980360784   -0.29121075359957   14.51970463411507
C        11.36999412128049    0.30108079249552   12.16869536700115
C        12.46289272735614   -1.39710349531838   13.88603650044560
C        13.74780414059347   -0.61238985823809   13.65992661419394
C        14.59848452855139   -0.51302479771522   14.92282327936057
C        14.43218346602031   -1.32620765908952   12.47303160971323
C        15.37596053300163   -2.45396674327071   12.87527053751333
C        15.83924401990439   -3.26046695926881   11.65503900903206
C        14.72437203936000   -4.06776780059225   11.07055048947597
C        14.19769136182908   -3.87029074220534    9.87699670004512
C        14.60803895120494    0.03235045590605   10.54913132844352
C        15.44219357939949    1.03971901423320    9.84698126872277
C        14.95661241187373    1.58706448267409    8.66209843540198
C        15.70333836560649    2.52409864623361    7.97405945795529
C        16.93844937254264    2.91874091832389    8.46358878828253
C        17.42524496178379    2.37679197947431    9.64294095262718
C        16.68230917255709    1.43993791496045   10.33678897854168
C         9.98659180542200   -3.31115291277398   12.77427374172683
C        11.15954749541067   -3.36704088363138   12.01717480544533
C        11.06226332305557   -2.40126247321886   10.98706247630988
C         9.76152174842331   -1.83121967738591   11.04210730178851
C         9.10948770975875   -2.36047764150717   12.16444942977208
C         8.74213918553137    1.06002366152120   14.13691680234909
C         8.27786963166488    1.92532849278620   15.12443399698392
C         7.38578254239856    2.92998132052484   14.79901902429610
C         6.95171473035776    3.07876170821409   13.49066649841920
C         7.41183729916886    2.22122968135739   12.50525237736442
C         8.30502977033062    1.21481474473918   12.82763775986735
C        10.94796923824541    0.55895353794638   15.76061424654480
C        11.61243422201351    1.70133593042272   15.31525527894743
C        12.45876600548666    2.39298197315959   16.15929927625262
C        12.65902869854883    1.94532751594097   17.45691093621678
C        12.00623938653272    0.80922598988969   17.90284026572414
C        11.15263760247924    0.11561654498811   17.06088656805444
C         8.89294541553115   -1.41017442962793   15.54348825408179
C         7.53049745089012   -1.23557546665285   15.75605171065081
C         6.82189944647729   -2.16518127930925   16.49857304606811
C         7.46219705446341   -3.27323071491327   17.02648461604113
C         8.81701462141691   -3.46193149334898   16.79995775378339
C         9.52903443280008   -2.54160458130854   16.05430599862816
O        11.58161444086066    1.31364822964079   11.66387537842640
O        12.42685998716758   -2.34171256341031   14.64256002955093
O        15.15751729731617   -0.36435262759873   11.70144342629206
O        13.56059343412544   -0.38737695863782   10.11600957306751
H        13.49330807843467    0.39444557641725   13.32224313730587
H        15.56980527182794   -0.08070346364252   14.69558222574973
H        14.73219090479588   -1.49338847685365   15.37100696965661
H        14.09397110996347    0.12436719408942   15.64540429351763
H        13.63781843794612   -1.72938820194398   11.82905857448415
H        16.24636909533775   -2.03224704062294   13.37838209282865
H        14.84494781731137   -3.10475785885412   13.57092883142471
H        16.64019609748172   -3.93526583366932   11.97008199982702
H        16.24328014858248   -2.57900579904627   10.90371678146438
H        14.34730358986121   -4.85512991297143   11.71182666962211
H        14.55137625292634   -3.08891039382824    9.22404890671879
H        13.38897408389693   -4.47466536140076    9.50175382442088
H        13.99118181309391    1.26400549329924    8.30325371493541
H        15.32510996967269    2.94842440372748    7.05584976840197
H        17.52338189187680    3.65046776737845    7.92561581184098
H        18.38825574515041    2.68723791999415   10.02118888578179
H        17.05327819904054    1.01282115763025   11.25524803318662
H         9.72317662306312   -3.96279973581731   13.58978050857150
H        11.99436014627234   -4.02449248948851   12.18711082685334
H        11.76940973156049   -2.25395734192026   10.18787726820561
H         9.34221173683322   -1.16289582416190   10.30874162403216
H         8.07835093617228   -2.20179788665229   12.44270800242216
H         8.61981169544418    1.80579350805679   16.14393035171273
H         7.02733098383391    3.60051429816865   15.56656552757673
H         6.25632326968708    3.86641791834834   13.24043589468316
H         7.07673525492537    2.34003834921628   11.48532894103455
H         8.68455466973460    0.54286586710990   12.07038796120452
H        11.45067974003626    2.04075224554221   14.30087405365208
H        12.96748549268818    3.27858170166518   15.80768711515732
H        13.32454338701225    2.48164701714368   18.11714469840020
H        12.16144730227916    0.45892775099327   18.91291038964418
H        10.64442778740879   -0.76720070479046   17.41971252739111
H         7.02065669576233   -0.37749375512565   15.34139964642051
H         5.76319708212341   -2.02370218542462   16.66199608768986
H         6.90429063503997   -3.99451568078702   17.60557431703473
H         9.31572828881288   -4.33315041263260   17.19957863256105
H        10.57912404785359   -2.69327803523534   15.84630823632526

