112
CSD_code = GAKMUA | q = 0 | S = 0 | Stoichiometry = C57H49N2NbO3 | MND = 5
Nb       -0.17638600048735    0.53193941540259    4.72481648303711
O        -0.72552128241357   -0.52747856442689    3.30550700188685
O         1.28594285693986    1.15292745303436    5.71197351606720
O        -0.66095808473034    2.19939085291017    3.78593274445981
N        -1.40178769262160    0.22217421252171    5.97818776963801
N         0.99660169570347   -1.75494783085068    5.34628925807951
C        -1.19930764140886   -1.35807927680718    2.40906204919735
C        -0.34224165138957   -1.95937465185425    1.45526430068425
C        -0.86494499450218   -2.80897172296557    0.48710162734921
C        -2.21105390540577   -3.11211732254808    0.45259739666227
C        -3.04365313291585   -2.59138296973697    1.42553982308578
C        -2.56567386966341   -1.72990636776972    2.40423013529770
C         2.30366398689588    1.59545518067416    6.41644584816976
C         3.02719021882628    2.73758421191001    5.99634808123501
C         4.07346777770601    3.22942476598417    6.76410520438104
C         4.46316096515588    2.59763090845173    7.93033321072655
C         3.79382780516232    1.45770305321574    8.33254276557987
C         2.71938649227248    0.95735788206244    7.60851403354727
C        -1.73856491520621    2.94597066865644    3.62679198097428
C        -2.34599466053505    3.61521810538057    4.71369889773201
C        -3.49994414304420    4.36214415178960    4.50551276749281
C        -4.08206103713738    4.45547285015047    3.25493005377471
C        -3.51880964342903    3.77283832491914    2.19232518277071
C        -2.36108297548357    3.02672278428726    2.35814113885112
C        -2.47082768462655   -0.00647888484076    6.86383830405947
C         2.40334222840350   -1.90376118412896    4.98718314205963
C         0.23861972647636   -2.96500363135675    5.04102865354387
C         1.11481991055679   -1.75019604675194    1.48733153953823
C         1.69211715856115   -0.49097457031384    1.64366965934822
C         3.06958455235062   -0.34677317025355    1.59807533041089
C         3.89172288370053   -1.44880141040205    1.43312432651461
C         3.32928394981240   -2.70844125654482    1.30981552101955
C         1.95545452321876   -2.85533267954488    1.33231322461827
C        -3.52457309169511   -1.22334394636427    3.40346347371227
C        -3.66276980309583    0.13894513344082    3.65031845751566
C        -4.67131622246553    0.60686749981701    4.47521232649550
C        -5.53951878414664   -0.28211448876444    5.08824058484403
C        -5.38304803501165   -1.64289235397523    4.88343445446081
C        -4.38909055026735   -2.11030974787190    4.04367812021943
C         2.70473253465143    3.40296082594640    4.72310966015419
C         2.61440636981599    2.65678542037819    3.55112983082820
C         2.42690965104328    3.28778577872957    2.33474224063119
C         2.28141439322841    4.66429388118339    2.27669189311884
C         2.33820243024300    5.41096944289789    3.44142557713218
C         2.56344450622161    4.78748545539964    4.65456126692734
C         2.03855370897298   -0.25219184624344    8.10324093233194
C         0.66595134631156   -0.25177135593888    8.34616255848982
C         0.05231704818633   -1.38933789068324    8.84620229712812
C         0.79127599637531   -2.53489430033436    9.09536883472896
C         2.15658669526791   -2.53971543079314    8.85865072212098
C         2.77764282507249   -1.40375717855984    8.37235131900126
C        -1.78279299708745    3.49970019135174    6.06921390225179
C         0.09001063111280    3.62419942810820    7.58535627857427
C        -0.74385854911133    3.33721219991099    8.65352012604146
C        -2.09836745093677    3.14986609363914    8.43501391605471
C        -2.61553596497162    3.23751769003296    7.15591390532201
C        -1.81143652289856    2.26029978018279    1.22104502838557
C        -0.49938814091910    2.45774271498127    0.80630824529027
C         0.02012069788017    1.72920594790490   -0.24943835170722
C        -0.75819678768918    0.78156211809104   -0.89225423807687
C        -2.06913364988293    0.58603884102699   -0.49259910260683
C        -2.59768037322137    1.32792914255291    0.54764901888131
H         0.94692085802140   -1.61235264053836    6.35688473113356
H        -0.20034752059231   -3.21954717622305   -0.25974551481315
H        -2.60600578049316   -3.75755583495135   -0.31734303438836
H        -4.09619617586437   -2.83649601279031    1.42149806573061
H         4.60202793255719    4.10722425327734    6.42016384223403
H         5.28407940553958    2.98514780284807    8.51404890421881
H         4.08638450687813    0.94888185738871    9.24015394683154
H        -3.93724703525651    4.88576622703679    5.34401135899680
H        -4.97396707479061    5.04654197326066    3.11086005563584
H        -3.97194944819972    3.81814055123747    1.21205185767095
H        -3.36023807554482    0.54802463426807    6.54038374410686
H        -2.23149330967124    0.31257902251501    7.88736077022624
H        -2.73662201523674   -1.07395916410791    6.87766199546091
H         2.49288545851776   -2.04781572197493    3.90991958841790
H         2.86106454793083   -2.76647548896404    5.49111416436588
H         2.95166264797941   -1.00572069881898    5.27390419677162
H         0.27638119570761   -3.16104119693641    3.96856129518430
H        -0.80070602169046   -2.81422972859811    5.33370822418576
H         0.64488884125716   -3.83828459125611    5.56986843591874
H         1.05493324594785    0.37931739741519    1.74343422649442
H         3.51699941433326    0.63343930272220    1.67453838178802
H         4.96422684765733   -1.32543864430200    1.39892689910381
H         3.96220699770415   -3.57595764291572    1.18961868353643
H         1.52053300614998   -3.84035089987408    1.23664425511031
H        -3.01293682444120    0.83742367935606    3.14998352661186
H        -4.78428367635983    1.67216877347513    4.61869838813733
H        -6.33295077566203    0.08148426344472    5.72512615119121
H        -6.04919759780782   -2.34233975968456    5.36840893841269
H        -4.28044193733385   -3.17292205530541    3.87610372466898
H         2.75162555972563    1.58211104248665    3.59762480296003
H         2.40802712033801    2.70774857745722    1.42302827696219
H         2.12538954314996    5.15355969325075    1.32583875953100
H         2.21653096313384    6.48389412360813    3.40228047096995
H         2.61818961955256    5.37232385887910    5.56203961918391
H         0.09969312852073    0.65149642957731    8.16518324608905
H        -1.00687006825244   -1.38128653576987    9.05293586235648
H         0.30721779556974   -3.41866818458312    9.48426375351043
H         2.73902634198520   -3.42711837993771    9.06162918552558
H         3.84376224229870   -1.40372650961357    8.19276182406559
H         0.22160182179175    3.96469613993167    5.47330303081653
H         1.14249769306284    3.79963987607205    7.75940968908597
H        -0.33927134717454    3.27054177416839    9.65349773628350
H        -2.75509570319901    2.93820699406879    9.26734886251034
H        -3.67421598672284    3.09434910466237    6.99332241690448
H         0.09847562645548    3.20053653988240    1.31384788219411
H         1.03816695456293    1.89624661851896   -0.57525270022817
H        -0.34466854405874    0.19935784682788   -1.70290196084473
H        -2.68175843827484   -0.15158168455515   -0.99026747381813
H        -3.62354169623898    1.17416965999427    0.85167430450918
C        -0.42162959118972    3.69787820782776    6.30139835843520

