55
CSD_code = GAKMIO | q = 1 | S = 0 | Stoichiometry = C22H22CoN8O2(1+) | MND = 6
Co       10.80942745411537    4.54589886228121    7.63531746605507
O        10.20427404495858    3.03553532888172   11.24613021509276
N         9.17381586065155    5.16340119143773    6.78936212329195
N         7.67007369071037    5.72462854811249    5.30353330078066
N         9.84600052895167    3.94503521025714    9.17206659338579
N        12.32621828465078    3.84344754969611    8.53644508002003
C         8.02293920169350    5.50500747209100    7.45093573117684
C         7.07977879544739    5.85351377507091    6.52528794313104
C         8.92568052705984    5.30403258131910    5.49887738126311
C         7.89016665352465    5.42367597207566    8.93012053066699
C         8.43043746657662    4.08211683073356    9.43269433031343
C        10.58572927317997    3.41448730109228   10.14626874613180
C        12.02649044913354    3.32888619698268    9.73468283027959
C        12.97524868844320    2.73697537707688   10.55565105425841
C        14.28612252940851    2.66689379694685   10.12044733767790
C        14.59169838173746    3.19424427791337    8.87355900446786
C        13.58760813371038    3.77081325040616    8.11487795062400
H        13.80751581570047    4.17699936586927    7.13865776764459
H        15.59679500845015    3.15989174459442    8.48514490068287
H        15.05005005314389    2.21133537189484   10.73092834472885
H        12.64909992315420    2.34743250043343   11.50789619083653
H         8.27223753058860    3.99413293226535   10.51352600144499
H         7.87393946165206    3.27325212540181    8.94036252273495
H         8.44259594097155    6.23886717700577    9.40235313938825
H         6.83917617538244    5.52026831106588    9.20116421630875
H         6.06732436254635    6.17599652964604    6.64872375272634
H         7.23374422984063    5.90525920577601    4.41234349496070
H         9.61619803419259    5.11735453897057    4.70018968007333
N        11.09246773754223    6.27112632097896    8.48128115056895
N        11.81151890581027    5.07981937795753    6.09858029169077
N        10.65937093929878    2.88109693693969    6.73418662405759
C        11.37205353968160    7.43862246504952    7.81970967738518
C        11.09472720300965    6.55633504110975    9.77176578375416
C        12.40058055603125    6.37427528150671    5.83795868771047
C        11.90114199880976    4.17391913897089    5.12438346382212
C        11.25485659562992    2.88339202007465    5.53594602533624
C        10.09156530112410    1.75238818261551    7.15574546207835
C        11.54179278968942    8.42968024915537    8.74535798171087
C        11.50888957807002    7.51294359311372    6.34052640319372
N        11.35826151010066    7.85402501249136    9.96711116102667
H        10.91113959318741    5.86498805234117   10.57045269888780
H        12.55589046789049    6.46728855011114    4.75712932018727
H        13.37932027738976    6.45178434922791    6.33030181753010
O        12.42004081246831    4.31480052116938    4.02451499059560
C        11.29307080864210    1.76579396190416    4.71496465595502
C        10.08882426147324    0.59454298256619    6.39705049386216
H         9.62981955816841    1.76504124147500    8.13195098507372
H        11.76872737800531    9.46773643430049    8.62192301307454
H        10.52670337183933    7.44212337795982    5.86828441408621
H        11.95073727884131    8.47142439451270    6.06948946913730
H        11.41997813932194    8.32221394288301   10.85830138804084
C        10.69830819707029    0.59550781081074    5.15015703344163
H        11.79353320270010    1.85346743116796    3.76274079783620
H         9.61600608614326   -0.29306705510354    6.78545284502861
H        10.71088741248368   -0.29385294058869    4.53968573477731

