78
CSD_code = GAKROB | q = 0 | S = 0 | Stoichiometry = C35H40P2Pt | MND = 4
Pt        4.22798634427495    8.17061140350260   16.25812376656279
P         5.02399295684720    6.23746018988648   15.06287488948681
C         3.33452422298427    9.61752004211789   17.41828733858440
H         3.70299994350707   10.63428058129202   17.24099565283258
H         2.25682019475337    9.62604820622126   17.18688233443307
C         3.53254948710350    9.29818443145764   18.89670739305929
H         3.07168518668032   10.07085892392453   19.52314427128883
H         3.04831663826201    8.34434250589898   19.14893273545351
C         5.02494958573851    9.20771066047107   19.23113977163720
H         5.47037808092695    8.46185263868357   18.54919563996688
H         5.50287709344288   10.16742253393659   19.02737253393309
C         5.26867929598045    8.80028014675292   20.64441561152633
H         4.74504288435026    7.90838749787832   20.96558046238787
C         6.04975610912754    9.44568611384245   21.49081907574930
H         6.58232631553505   10.33780192727255   21.20324429293893
H         6.19459952292286    9.11242958707521   22.50510376566277
C         4.22837412774595    5.03826081995570   16.25819229488091
H         4.97351163239105    4.40476299708096   16.74547211257938
C         4.29078948600975    5.67585169174862   13.49416862772057
C         5.04613788303389    5.45033579512518   12.34898052593580
H         6.12292761735771    5.54402020186430   12.38644291536415
C         4.42069080229458    5.10580177440480   11.16379102499908
H         5.01353120954667    4.92377715346505   10.27900959751326
C         3.04047721470998    5.00387353793578   11.10640229822175
H         2.55641977709854    4.73797762124456   10.17852032326598
C         2.28041005821384    5.26070330212463   12.23658492354118
H         1.20285613537262    5.20296769605471   12.18971479156162
C         2.90137256592452    5.60201370695086   13.42194553546596
H         2.30624275831900    5.82620330074983   14.29997530186309
C         6.71401126792041    5.55412618878395   14.98843639315245
C         6.96423388108630    4.22849711645187   14.64662330207472
H         6.14329208970148    3.58187290307695   14.36591884497060
C         8.25961139544963    3.74759370732239   14.65991193656128
H         8.45501752199728    2.71964392366454   14.39015507776620
C         9.30873263405732    4.58061129363834   15.01963987560049
H        10.31897025542936    4.19852446560881   15.02873081792671
C         9.06290186837713    5.89750590467556   15.36911443257567
H         9.87967757764803    6.54433097949603   15.65390496545830
C         7.76687172593742    6.38320377906516   15.35416009291963
H         7.55558320383371    7.40872304882332   15.62888439495431
P         3.43238708351547    6.23741935938621   17.45329768594171
C         5.12143790093053    9.61738389935232   15.09766687628387
H         4.75292731882475   10.63413018469131   15.27504163128548
H         6.19916271392403    9.62605367623899   15.32894169484618
C         4.92346795669463    9.29818966838126   13.61921730730867
H         5.38432029476528   10.07090843729377   12.99280389050620
H         5.40770719270116    8.34435623396634   13.36695007754668
C         3.43096499913552    9.20772268755237   13.28509925935864
H         2.98559080914327    8.46186324413380   13.96708517724768
H         2.95306717459647   10.16743854077588   13.48893132570535
C         3.18698940102430    8.80029498827235   11.87186418388617
H         3.71044448376592    7.90830534628686   11.55065023620258
C         2.40607495724796    9.44594168522307   11.02547786668253
H         1.87389461410925   10.33824978130095   11.31308635628189
H         2.26103579326337    9.11263558777324   10.01125141582438
H         3.48348313073681    4.40432117554525   15.77110658387450
C         4.16509865957617    5.67596133284630   19.02228212583584
C         3.40939045687435    5.45048539437461   20.16723999556462
H         2.33261389178773    5.54417581795569   20.12942072157917
C         4.03445565673633    5.10594382417406   21.35262449106277
H         3.44132623822029    4.92390896452925   22.23720856951322
C         5.41465259953782    5.00400675041078   21.41043817541065
H         5.89843004803247    4.73811288269888   22.33846608532224
C         6.17507376421316    5.26086557766836   20.28050362434396
H         7.25261348286601    5.20314535562870   20.32772324756084
C         5.55448713468007    5.60216230573955   19.09494143512837
H         6.14991012246646    5.82635437846259   18.21711435155483
C         1.74232399229733    5.55416269121017   17.52726456799924
C         1.49201879066594    4.22856492256230   17.86914164561750
H         2.31288538822797    3.58199642920898   18.15016602044930
C         0.19666637661383    3.74761922752583   17.85544318743696
H         0.00120847353888    2.71968983577068   18.12524325227657
C        -0.85235202130985    4.58056497012437   17.49522591260920
H        -1.86257068950349    4.19845203092572   17.48583527887181
C        -0.60644094485361    5.89743890521634   17.14574365342266
H        -1.42313713697239    6.54422077640005   16.86066904419569
C         0.68957261076224    6.38318840108598   17.16112119713439
H         0.90088872931922    7.40870442979918   16.88641190596873

