90
CSD_code = GAKSOD | q = 0 | S = 0 | Stoichiometry = C41H42ClNP2PdSSi | MND = 4
Pd        3.33025050294766   13.38409179228641    4.48351990682632
Cl        5.31053785618124   13.94851358300458    5.43094768463264
S         1.23965420616619   12.54793155106324    3.59202902616298
P         1.71886080497813   11.52073214081548    5.22614156431295
P         4.17013776934515   14.28761195475699    2.57086693817427
Si        1.67850598462513   14.19546556005531    6.86059414253123
N         1.27794218712571   12.73621405326305    9.38319994176461
C         2.58459009684683   12.63051429024919    6.27661241775439
H         3.22310000201724   12.13558478779620    7.00949742231598
C         2.85852105092886   10.16962166216651    4.76011750907951
C         4.23767964798041   10.36155079084096    4.78185578567758
H         4.67125334187886   11.30411223598441    5.12992226700680
C         5.07655880942826    9.33992670650631    4.37076678420880
H         6.14626906822529    9.48449510646678    4.40616580964581
C         4.54778693487171    8.14479499523172    3.91031511487188
H         5.20620351505943    7.35137964928790    3.58769916713284
C         3.17427552692741    7.96823854102257    3.85270918281255
H         2.76045894065596    7.04360103551945    3.47739492550365
C         2.32931799750731    8.97680829555468    4.27720468551546
H         1.25497363763065    8.84833522984011    4.23628120683373
C         0.26973442001193   10.65611543110815    5.91329735314146
C         0.46125090153817    9.65258977491578    6.85648336439347
H         1.46847839798068    9.33043306416141    7.09131315195759
C        -0.63191657707416    9.05800544494982    7.45598763942462
H        -0.48725265466744    8.27425498135774    8.18572523905329
C        -1.91332761758677    9.46647719694205    7.11878685443891
H        -2.76595902759368    9.00066037981419    7.59033670892338
C        -2.10322672376790   10.46399924530875    6.17766337815115
H        -3.10251059264129   10.77520004261728    5.91242654812076
C        -1.01177517812291   11.06565235981346    5.57854248458658
H        -1.14005335347650   11.84242628982560    4.83657690977599
C         0.00131749241083   13.70346979250677    7.60713632202478
C        -1.21794039086956   13.98899353396825    7.00899490287594
H        -1.24575682370920   14.60813529261150    6.12541045702393
C        -2.40040135706232   13.48628640535148    7.52287657836153
H        -3.34137673248489   13.72155195694945    7.04637773206559
C        -2.37533247452594   12.66696231877142    8.63714874449020
H        -3.29343312935148   12.25494117809807    9.03133501645574
C        -1.17186355191586   12.38566646228724    9.25879347742581
H        -1.15726933922123   11.75871972379164   10.13908846336520
C         0.00717502610039   12.91728419146195    8.75656997003836
C         1.43989027202959   13.66429180869646   10.48798932205430
H         2.47189735262395   13.62774456163398   10.83675239787962
H         0.77843443682122   13.42396366235450   11.33448467857529
H         1.21436712721105   14.67068414158806   10.14446387308885
C         1.56166580598365   11.37764135828906    9.79878338456607
H         1.30010216039072   10.69770898221876    8.99136938447754
H         1.01959503928916   11.07338265780379   10.70634575703636
H         2.63081897930669   11.29551971399012   10.00124583864063
C         2.92533071277938   15.16210180384227    7.93774609889351
H         3.76950339172574   15.47694601769791    7.32911873629903
H         3.31728577965642   14.55399698012927    8.74194014193040
H         2.46946228929749   16.04628003524168    8.36882104161943
C         1.30062629412218   15.41101895489784    5.40025266228987
H         2.22617434373483   15.64799908801253    4.84858166648559
H         0.89621719591225   16.34938914625241    5.77256597742520
H         0.58606309430302   14.99894971516709    4.68951635133104
C         5.50014178570548   13.15083108248624    2.09617999073072
C         6.83210168354219   13.49705111957182    1.91726575803612
H         7.14425561316176   14.52510294620204    2.03180901751012
C         7.75707166617348   12.51311550449968    1.60974760869131
H         8.79550115751752   12.77895318793838    1.47522328114276
C         7.35815279545033   11.19381461582969    1.47648942914252
H         8.08523384064916   10.43363627974057    1.23013276185697
C         6.03020176051674   10.84312990821488    1.67100848860636
H         5.72071389208450    9.81227914614123    1.57641006521746
C         5.10564168801219   11.81581276970723    1.99675895499141
H         4.05996660396831   11.55854365269349    2.16755066494114
C         3.11954796090615   14.35666629339264    1.08273023121662
C         3.45776544775226   13.80920778859936   -0.14760361797085
H         4.39425261261199   13.28144440479253   -0.26839007600371
C         2.58766578045022   13.93659663223188   -1.21657059568791
H         2.85043715492986   13.51018607777275   -2.17414174287486
C         1.38470071782587   14.60494663305714   -1.06285345266830
H         0.70937314949357   14.69754454092188   -1.90084214106524
C         1.04322309186389   15.14881168232187    0.16567780685624
H         0.10148284758838   15.66370909611947    0.28662805313885
C         1.90722221929365   15.02352878216946    1.23542237058104
H         1.65204694797386   15.43012192887858    2.20786264396341
C         4.88877861011950   15.95588423650003    2.52487423587501
C         5.42654683751628   16.44823068655078    1.33825778640115
H         5.42920610838227   15.82709218015739    0.45251668453101
C         5.94926377051471   17.72663471975199    1.29786224109735
H         6.37276510831695   18.10601550558060    0.37906145187495
C         5.92836252989413   18.52273761591186    2.43316652629097
H         6.33823617536211   19.52148610200679    2.39672398934732
C         5.38105672868982   18.04052188684571    3.60990336662557
H         5.36178336345053   18.66187775618552    4.49292402549569
C         4.85881463891729   16.75972527329300    3.65735200568746
H         4.44531284055977   16.36709230734900    4.57837209515567

