75
CSD_code = GAKSIX | q = 0 | S = 0 | Stoichiometry = C34H35IP2PdSSi | MND = 4
Pd       10.51412329418652    2.50083450285518    3.89982303013669
S        12.52604771558724    3.79872734644628    4.20304933313126
P        12.85575373282764    1.93768792013155    4.81690754523100
C        11.32730041920347    1.36967260910877    5.46633723313676
H        11.23727613809285    0.28238714407835    5.51268659244154
I         8.51530338175514    0.89281778109246    3.67504434959931
P         9.71186339675380    3.95955512699067    2.30462557901240
C         9.47105215285333    3.75917605455047    6.33111240845334
H         9.95300151296385    4.41563049283744    5.58740007567565
H         9.15585650338083    4.39123216959954    7.15771035808718
H         8.56788336044329    3.32089375150028    5.89378500943132
C         9.63234561318721    1.13707633565288    8.00601340027948
H         8.86117717562731    0.63621486637010    7.42953546032657
H         9.15025265765514    1.67141598623522    8.81564045705618
H        10.26819929508503    0.37670167914919    8.44633943659980
C        12.04925713666702    3.12998966545235    7.97554997803608
H        12.73984377695753    2.36964946370516    8.32881411904572
H        11.64368702866567    3.63764945568002    8.84390153586237
H        12.61947179277481    3.85492574133639    7.40113289195734
C        14.33767729651362    1.84352106348690    5.86945663981428
Si       10.64322819249283    2.35367864571411    6.94341368708048
C        14.65264291221447    0.61512616704776    6.43686905922850
H        14.03659248356368   -0.24665729354918    6.21227110002813
C        15.74677761646838    0.51076635922178    7.27345146056196
H        15.99849102791428   -0.44085471378430    7.71809441660720
C        16.51974845885350    1.63050423781506    7.54312678538427
H        17.37314484182097    1.54744863747648    8.19972253096572
C        16.20232287721327    2.85462204782060    6.97754595152883
H        16.80699842658611    3.72388141219699    7.19068584981931
C        15.10600324122664    2.96474497010306    6.14144238906837
H        14.83934118421448    3.91329092578658    5.69179927121591
C        13.30206323086585    0.88361568505365    3.39619468197233
C        12.39807714179409   -0.00615271308777    2.82453234103646
H        11.40969568243340   -0.15443016742743    3.25472944684282
C        12.77365950281230   -0.73868481641417    1.71053859099168
H        12.07528737692359   -1.43844787108601    1.27486372038306
C        14.03372770151453   -0.57205903197613    1.15946236086712
H        14.32171500066395   -1.14364557704865    0.28918733319065
C        14.92780928486887    0.32689300136944    1.72027716751487
H        15.90812776725040    0.46010287909032    1.28673639605667
C        14.56505440513842    1.05337493096190    2.83841128014950
H        15.25344989610659    1.75796538204906    3.28967654145074
C        10.44488409877099    3.48564439738889    0.71355330995094
C        11.02437234269957    2.22376721987774    0.63660254449791
H        11.00416020245284    1.57095865370008    1.51433182810615
C        11.61763087520239    1.79996111696226   -0.53887211521911
H        12.07203686216219    0.82151562202471   -0.59158114877078
C        11.63006915185250    2.63679162635927   -1.64188326041840
H        12.09331853817785    2.31071381774366   -2.56155200482771
C        11.05253667522389    3.89609658559332   -1.57005497715646
H        11.06620328990320    4.54578742499274   -2.43325914622212
C        10.46224587536589    4.32641672475232   -0.39688629707120
H        10.02300549465837    5.31311986881720   -0.33208044785887
C        10.17845972726483    5.71879020721243    2.42713362074284
C        11.48625530768286    6.07757374656461    2.10537593901118
H        12.17460940062674    5.32558746084225    1.74293158778549
C        11.90299746055393    7.38667816622590    2.24746378556906
H        12.91782773476075    7.65638964092732    1.99385639978138
C        11.02383151355998    8.34925230141760    2.71727413901914
H        11.35154466183077    9.37224708709961    2.82985424566509
C         9.72541333815460    7.99674599025843    3.04412050947264
H         9.03728066550582    8.74450171067575    3.41107379743488
C         9.30180402207171    6.68687578452824    2.90547117552847
H         8.28528898821244    6.42062164296582    3.15960365685440
C         7.92339644704387    4.03973910362283    1.99307076713732
C         7.34980253608235    3.89657200046307    0.73749092070998
H         7.97109469558881    3.72688726789519   -0.13009862116841
C         5.97332396415210    3.95406120574468    0.60271798742634
H         5.52848058443650    3.83774171557478   -0.37469521359842
C         5.16767958425918    4.14804731682496    1.71141311354912
H         4.09447476496905    4.18528035719396    1.59872135683013
C         5.73604429757658    4.27565363536995    2.96884197792956
H         5.10892069583830    4.40752280739094    3.83801641535600
C         7.10805585561527    4.21541059002815    3.10932014990423
H         7.56391871364037    4.28100494937909    4.09132620871034

