40
CSD_code = GAKTUH | q = 0 | S = 0 | Stoichiometry = C12H16BCl2N6RhS2 | MND = 6
Rh        0.08708495730650    3.58199748304001    4.37256568486992
Cl        2.06690666854889    4.28696968888028    3.50498090650887
Cl       -1.08011937786013    5.20696615449670    3.29362825267609
C        -0.14019589077441    2.43301497729412    2.73259940180447
S        -0.62813563201630    0.80562142702175    2.47562564129267
C        -0.97525380192045    0.08635699027432    4.10637353125275
S         0.22802296515157    3.28173117745653    1.32072873012648
C        -0.04807496542733    2.11990668771822   -0.06364625451569
B        -0.31402806508714    2.91961892325214    7.41822763381796
N        -1.63460095488717    3.01204290187923    5.29609703215371
N        -1.60752585097244    2.74202044630258    6.60329086785814
C        -2.84679923718363    2.45251646568278    7.02131456648417
C        -3.70166353861762    2.53783126558155    5.94172303598205
C        -2.88584241178042    2.90143489655670    4.87193516549705
N         0.34005780644760    4.81753336511930    5.95929154184180
N         0.12345781840449    4.37242925894771    7.20074803163266
C         0.35329366364404    5.36392702199638    8.07242010562641
C         0.73054828885334    6.48461428554788    7.36375598232981
C         0.70695963363982    6.08718150349044    6.02780276475020
N         1.10416303931377    2.21028573716574    5.48367689033866
N         0.77659868780144    2.04971730614163    6.76834026860378
C         1.60661806168241    1.16015959414519    7.32887046900552
C         2.49944962426244    0.73186668493479    6.36808556613951
C         2.14323280988090    1.43097080865465    5.21648622002654
H        -1.18855966183700   -0.96166299056814    3.91551722917692
H        -1.84335522741495    0.56608903753494    4.54502589984138
H        -0.10467695630333    0.17614857299516    4.74545577811825
H         0.18867224205407    2.67352565301876   -0.96550905758522
H        -1.08573380830681    1.80229928880718   -0.07681694661086
H         0.60931962574855    1.26228697881870    0.03679395139999
H        -0.46991867425564    2.65341011840621    8.55661143975781
H        -3.04269508420107    2.20801600387753    8.04530465834150
H        -4.75829703895460    2.36977260151349    5.92638428856205
H        -3.14408724354436    3.09252196620458    3.84804604627837
H         0.23554316195605    5.21156233809847    9.12627899127999
H         0.98611404378053    7.44897760513464    7.75062024468667
H         0.93332232875401    6.65019928254484    5.14255981626229
H         1.51369805643958    0.89033567253427    8.36098578094434
H         3.29460109700627    0.02476908135392    6.48013547668541
H         2.58579884066913    1.41193373814517    4.23918436675574

