78
CSD_code = GAKXOI | q = 0 | S = 0 | Stoichiometry = C20H42B10IO2P2Rh | MND = 5
I         9.10000094459995    3.60601612179382    0.39238475703321
Rh        7.06948621722542    3.60601955154249    2.21562981557269
P         7.11013229721505    1.33727829250503    2.59829017313429
O         7.05227862296927    1.15092945967638    4.23563834559879
C         6.71929275366943    2.27464541523391    5.00225129436445
C         5.32470875092701    3.60604047703762    1.16071610973705
C         5.46816944801240    3.60606659682901   -0.22383772892923
H         6.44201448045263    3.60608664979301   -0.68956082501297
C         4.36386625419771    3.60604073512676   -1.06099949509653
H         4.51438757411631    3.60604249552570   -2.13066287184288
C         3.08618019658118    3.60600875496424   -0.53401858615953
H         2.22429321378644    3.60596116529738   -1.18442174239408
C         2.92985830737631    3.60602870961290    0.83884047986547
H         1.94061568213814    3.60602324012758    1.27401742630016
C         4.03387194227663    3.60604768780776    1.67957976012368
H         3.85084015239662    3.60605902650695    2.74145841305104
C         8.62522862629991    0.29383339029300    2.27994074711185
H         8.81415750244944    0.35817293476343    1.20308089162893
C         9.80675984868369    0.91566155004537    3.02238239268388
H         9.95418540114079    1.95403127909651    2.73527333039610
H        10.72185563032986    0.37841934971096    2.78068145047556
H         9.65125044516634    0.86397903527502    4.09914015093539
C         8.47164511204540   -1.16440564104643    2.69603640074321
H         8.08217368621145   -1.23252970441598    3.70923227778177
H         9.44681299818729   -1.64958260965897    2.67307340404689
H         7.81734675396476   -1.70987967570481    2.02243643801687
C         5.61152749833775    0.38015534774983    2.01944859862492
H         4.81154939855038    1.12923401626770    2.09213702981474
C         5.19185173471452   -0.81484966406027    2.86824737977586
H         5.78445778849360   -1.69754745530162    2.65097681215007
H         4.14949475763769   -1.05499828714641    2.66343780437344
H         5.28556597806353   -0.58697692719169    3.92767273545688
C         5.77874475714415    0.03686423619578    0.54340855809366
H         6.07633505333198    0.92262092856245   -0.01573026102629
H         4.83820185126129   -0.32333819254163    0.13069348331967
H         6.53270871494171   -0.73290629076704    0.39632312276338
B         6.21952283594658    3.60600595017045    4.07861896623471
B         7.77496707222957    3.60603226284655    4.93334223587402
H         8.73454687362340    3.60603038183524    4.24218098253612
B         5.06581078518411    2.72723687040265    5.06435337730473
H         4.29150426965676    2.00505971648703    4.55686385892755
B         4.88536693534665    3.60602116999719    6.59066084020186
H         3.87423569200531    3.60602067570281    7.18653345503443
B         5.93920564149729    2.16524818345613    6.50291758526544
H         5.70407415328847    1.10046039217961    6.93432046529632
B         7.62127130989649    2.70754910472348    6.40939749388205
H         8.49666356460994    2.00722823228418    6.75223049988973
B         6.47397234000529    3.60600007230458    7.41863771241344
H         6.55055181575279    3.60598340385124    8.58978100238062
P         7.11010220134000    5.87472426575628    2.59824682891264
O         7.05227025173813    6.06110679085170    4.23563821203538
C         6.71930416210860    4.93740403846763    5.00226012677184
C         8.62519881347200    6.91816190010407    2.27989311107284
H         8.81413827270627    6.85379721603143    1.20303482174264
C         9.80671757807451    6.29634134232014    3.02236146193434
H         9.95415953452640    5.25796466768639    2.73528590399715
H        10.72180939655800    6.83358833243576    2.78065266596119
H         9.65119753861348    6.34805539503221    4.09911627376358
C         8.47162942393244    8.37640392320911    2.69598312223456
H         8.08216296765037    8.44452330038346    3.70918254138982
H         9.44680703666431    8.86156059608816    2.67302569531370
H         7.81734121801999    8.92189622413790    2.02238705919945
C         5.61149071590751    6.83187350133434    2.01944054874827
H         4.81151225330700    6.08279246610188    2.09212641015368
C         5.19181998975086    8.02686809836967    2.86825511740765
H         5.78446026198474    8.90955794086091    2.65104002894381
H         4.14947872919086    8.26705643975999    2.66340606289320
H         5.28547212511189    7.79896083687031    3.92767960554339
C         5.77868548757957    7.17518564031755    0.54340086664315
H         6.07622067240854    6.28942760994217   -0.01576545041649
H         4.83814565430842    7.53543253460148    0.13071531447996
H         6.53267279368783    7.94493074761530    0.39630011198627
B         5.06583503308546    4.48483708569282    5.06437936761492
H         4.29154358762038    5.20703216666823    4.55689039341575
B         5.93922381111807    5.04678161536975    6.50295432994472
H         5.70409975290873    6.11156133501813    6.93438375565318
B         7.62127575355399    4.50447675439700    6.40941634540117
H         8.49668131891834    5.20476881869968    6.75227281953520

