100
CSD_code = GAKXIC | q = 0 | S = 0 | Stoichiometry = C32H52B10O2P3Rh | MND = 4
Rh        3.90451073443012    8.53173325409661    4.73140241089425
P         3.02155561235897    8.27067544058556    6.81320817463599
P         4.44453576061141    7.85402961953122    2.60713387185616
P         3.47095443675044   10.76519608233700    4.35591053731650
O         2.69849532677957    6.68251406420021    7.09054072059089
O         4.45813748053470    6.20510242685659    2.54490194685438
C         3.33649453952299    5.77745130000448    6.22764826969183
C         4.28551367206649    5.52931734777062    3.76252320401923
C         1.30591981970664    8.94993687398021    7.12364183394589
H         1.42898870224263   10.03349704730688    7.22564481679567
C         0.61979806834920    8.40141216308887    8.36784320637606
H         0.63262531972917    7.31414377794796    8.35819380035469
H        -0.41835151272369    8.73218707611067    8.39146665714065
H         1.10383452232369    8.75507041214184    9.27429301393419
C         0.46892528985304    8.67278705792855    5.87996000187562
H         1.01211769366642    9.00256906838508    4.99159912741127
H        -0.48215566672055    9.20211904729999    5.92271081663431
H         0.26894332429144    7.60658167039813    5.79084821812669
C         3.90677795031606    8.78835145058671    8.39439698881563
H         3.39548424613022    9.69458335573762    8.73953702765609
C         3.86589253483065    7.73527543723765    9.49580977566869
H         2.84939736972092    7.42219364346209    9.71318847296347
H         4.30808169864484    8.13578010267730   10.40778087757417
H         4.43122396463525    6.85515287512932    9.20113419629538
C         5.35243679520337    9.14530741419474    8.05674284536944
H         5.89958629670647    8.25836729644767    7.74582618743682
H         5.85599423887044    9.57502401528402    8.92178224204737
H         5.39254777797567    9.86461421204752    7.24039875188432
C         3.21341937756947    8.15950610988469    1.22027433329527
H         3.20558489327029    9.23953893915833    1.04733126809143
C         1.82800796574696    7.74577570422746    1.70244716137780
H         1.76908838708857    6.66291928776439    1.79082294031767
H         1.06243416238498    8.07820326140351    1.00254907186951
H         1.62129571160283    8.18932503375119    2.67538385975182
C         3.54809263173739    7.43274843657986   -0.07803628453116
H         4.38304666174193    7.89503456804140   -0.59788573640291
H         2.68681083631050    7.46007284751384   -0.74487737052124
H         3.78906654333110    6.39162538803322    0.12514315143010
C         6.03684089415153    8.20915955112782    1.68402627083945
H         6.04193033005401    7.58462646963318    0.78634186851391
C         7.24801180514223    7.83564624244057    2.52977755666109
H         7.17817199554326    8.27710958293093    3.52244316035216
H         8.16313966117219    8.19249221383078    2.05841377395249
H         7.31927479837298    6.75702195364524    2.63381391335323
C         6.10069150901262    9.68031153898505    1.29577905556061
H         5.28258528124134    9.95922688866889    0.63621652600022
H         7.03778136593534    9.89601432323854    0.78336225202176
H         6.04999332823588   10.30219411106120    2.18734076016318
C         5.05121633557345   11.68546699991878    4.49257430151684
C         5.13547346946161   13.07199813238122    4.41377114836744
H         4.24049308587231   13.65554044071562    4.24535954971922
C         6.35980461722940   13.69925131931741    4.55379689391449
H         6.42254767710707   14.77590960367725    4.48665033967161
C         7.50552212157634   12.95284681214349    4.78345083300889
H         8.45862041333868   13.44937229445262    4.89207673515844
C         7.42600877012807   11.57374140050909    4.88225933124667
H         8.31541424570847   10.99107373076288    5.07258513585711
C         6.20169548733769   10.94590272773038    4.73900870361605
H         6.11006155090143    9.86292202044314    4.82371181472508
C         2.53346743998456   11.86915597584525    5.50150131015394
C         3.07592425410481   12.01211955709529    6.77749331275945
H         4.00663922000405   11.51398696525769    7.00888269935135
C         2.44945037281796   12.78094704513336    7.73760671723569
H         2.89040829144299   12.88426608883562    8.71877374569679
C         1.25479998493869   13.41826130543027    7.44090334664548
H         0.75733432167140   14.01716417230022    8.18938353375114
C         0.70798850640970   13.28608734006562    6.17720663245881
H        -0.21892208226568   13.78645522071043    5.93563648782098
C         1.34132969834587   12.51994384867488    5.21216900073275
H         0.90239278440581   12.44795595021487    4.22861686897804
C         2.82076082967950   11.37180421300877    2.75038355580806
C         1.51790260228721   11.00438228843253    2.41492193388836
H         0.92868524983354   10.43704925672768    3.12307896562472
C         0.97535453908353   11.34485342290923    1.19095428122141
H        -0.03898575467393   11.05946297153187    0.95143313375107
C         1.73684786638323   12.04352418118808    0.26796578272057
H         1.31946059249446   12.30584331637211   -0.69297104293643
C         3.03852770899299   12.39514442469456    0.58132344367832
H         3.64056763014926   12.93193637160340   -0.13791404183213
C         3.57873342767895   12.06194537425699    1.81165359534639
H         4.59727429802572   12.34143486452975    2.03618751386444
B         4.35989002081449    6.56823515090436    5.10590194206871
B         2.83972403791203    5.79951007051253    4.61518791402053
H         1.97295688546978    6.49439000748167    4.24348912430610
B         5.64164660835823    5.39353953474090    4.79678828511708
H         6.68967536491509    5.75478886922159    4.41839869648198
B         5.01232061281026    5.56072025623895    6.41067403043819
H         5.54763248421766    6.06733584939477    7.32544492789775
B         3.16088231955657    4.23081128805741    3.93141281813069
H         2.55925394511896    3.88290434823810    2.98465285733615
B         4.90025613088487    3.97024687141890    4.04217587504788
H         5.46216020260692    3.42377560465599    3.16765626131431
B         5.35136816404964    3.94575841111173    5.77093067091290
H         6.24128691655654    3.29402115654485    6.17884455912091
B         3.87080336286963    4.23929662238926    6.71904628423352
H         3.66928010435961    3.90014248234088    7.82523204631553
B         2.52189446131842    4.39509529452842    5.59910565821190
H         1.42042654480565    4.18412872191332    5.94671082903901
B         3.80317746902011    3.22817061168361    5.24425862510228
H         3.61743067291752    2.06785323648926    5.28901750480422

