70
CSD_code = GALBAZ | q = 0 | S = 0 | Stoichiometry = C25H40O2P2Ru | MND = 8
Ru        4.21587992775174    1.94180436124928    3.38571455992240
O         1.16024677020268    2.44403113386378    2.75486936319086
O         4.97657605700514    4.91478883712629    4.14950936301177
P         2.19826401050961    1.25449416687534    2.39650922772717
P         5.83812547988941    3.59826202199194    3.76914878628366
C         3.09343520012638    3.65442895089143    3.42715111020082
C         1.72839554130894    3.64248787481527    3.16364330644083
C         0.92455399983451    4.76103122060616    3.30757605080752
H        -0.13014889821162    4.69554064261685    3.08831984088014
C         1.49741801532635    5.94844986165142    3.73313302144511
H         0.88513517809757    6.82893229287777    3.84993809741218
C         2.85359677633020    6.00943649902356    4.00895291059104
H         3.31635319009847    6.92597664542736    4.34143538911194
C         3.62194666463055    4.86759521537443    3.85319925779554
C         2.10537530865264    1.24992680571769    0.52264746939149
H         1.12516090195993    0.84928816141975    0.23951403245603
C         3.20637818287880    0.39262079549408   -0.08711423389381
H         3.16756513542119    0.44950562748291   -1.17397452569308
H         3.11463978406833   -0.64980096472452    0.20503876267486
H         4.17673813785242    0.75758007961995    0.24575000106548
C         2.21452712238025    2.68987217585276    0.03246720601426
H         3.10776871011389    3.15342188200399    0.45268098575476
H         1.34922605769348    3.27457216821306    0.33712613784674
H         2.28481630873901    2.71734188540207   -1.05364148660664
C         1.02625409050008   -0.14151827304372    2.85047227607277
H         1.08213654518345   -0.20404785610732    3.94363976251289
C        -0.42309626402277    0.16731492146415    2.48400084202638
H        -0.55578733228568    0.24028153577093    1.40734136333720
H        -0.74947335695093    1.09970260857451    2.93494751774661
H        -1.06379372660711   -0.63494529979647    2.84858377494179
C         1.44924144051702   -1.48153937737567    2.26028401310901
H         0.87972265778063   -2.28786624647947    2.72231035143038
H         2.50650307843491   -1.67298746793447    2.42689242483209
H         1.25440201567838   -1.50772110115391    1.19055804571072
C         7.08133575691705    3.79349923288754    5.16517218908251
H         6.57177520627599    3.38913679413172    6.04779720529926
C         7.40757495647153    5.25637505631321    5.45539303884059
H         8.06974781449652    5.31177902064936    6.31880134522039
H         6.50676187879725    5.82105730089985    5.67646998100590
H         7.91105175848192    5.72723286271981    4.61457480477725
C         8.36257870642715    3.00124922792236    4.93325401809758
H         8.97149627388906    3.47310498258378    4.16545587243978
H         8.14922953964475    1.97916511637654    4.63005140945444
H         8.95014154927674    2.96873883545750    5.85073654107912
C         6.81229953935923    4.22064250296373    2.29191827960300
H         7.55899639775820    4.93298262448820    2.66133406053598
C         5.85451025272366    4.94607137635608    1.35322791414057
H         6.36362304225997    5.22543478471862    0.43232002242527
H         5.45908399772501    5.84735507747624    1.81661796257868
H         5.01857988277861    4.29109295656559    1.10579042125265
C         7.50823496308021    3.07683743260665    1.56606821232470
H         6.76830667106210    2.34068976784924    1.25556132854332
H         8.23858830722901    2.58160365586502    2.19994809730815
H         8.01988340772618    3.45048927203827    0.68028987240595
C         3.25207987336299    1.07049582429271    5.10091215087709
H         2.23049067902377    1.30257727814959    5.38962624166864
C         4.36605789184328    1.79470030266728    5.52694911597126
H         4.31352657251977    2.65693806735220    6.18619112220002
C         5.52239219662234    0.79278098394460    5.57403730138726
H         6.39960242146292    1.07490852572380    6.15408458634398
C         4.79508460314390   -0.48921717956083    6.00135050571694
H         4.37259651695308   -0.43111410494710    7.00634659005421
H         5.41220772553257   -1.38531987870637    5.91099863479131
C         3.74152178332047   -0.36485157097679    4.89247559729352
H         2.98424590924450   -1.14589873340857    4.84648096582964
C         4.62498545397430   -0.18871761192280    3.65644848386893
H         4.63548960560957   -0.89502253935284    2.83285210218857
C         5.73678045520011    0.53351876245965    4.08207548691999
H         6.72102964088942    0.45995817386723    3.63146301220951
H         4.69482605801920    2.04986403476228    1.94040052070766

