38
CSD_code = GALFOO | q = 0 | S = 0 | Stoichiometry = C14H20MnNO2 | MND = 8
Mn       -3.61173695626954    0.96939374835868   10.26272175780393
O        -4.27687021312483   -0.44291802265528    7.79609833212157
O        -4.38322168321278   -1.21503041649819   12.04732682763247
N        -5.59275563852819    2.81148922297666   11.28911844686500
C        -4.07060269814484    0.11202950520090    8.79057847754731
C        -4.07721051933388   -0.36397795901826   11.32288142409575
C        -5.37271191456904    1.71470011054505   10.56709904018592
C        -6.68219437816533    1.12283256047634   10.09123828695616
C        -1.49991691792295    0.87017884920561    9.86123419404193
C        -2.05481355238767    1.99459886788833    9.17679508877119
C        -2.57983081190594    2.89204727355338   10.15121167460919
C        -2.37253070750863    2.31615661692105   11.43670884853043
C        -1.69459285151421    1.07215467816181   11.25524229229315
C        -0.61143382431017   -0.17029428526878    9.24582846972172
C        -1.82709632329125    2.33714728225771    7.73369590775019
C        -2.98493278415655    4.30665685904203    9.84132390266487
C        -2.48963740952294    3.00462230349577   12.76995170309758
C        -1.04670240548209    0.28527316866325   12.35558340793103
H        -6.53328515021574    3.12585483760722   11.50411379723377
H        -4.83361404736747    3.32975155618622   11.70158060290320
H        -7.52953749235949    1.46515117214538   10.69016936462816
H        -6.84391186635705    1.42667806387352    9.05650126631821
H        -6.64102478454594    0.03439616330258   10.10698044476849
H         0.42089755548331    0.18970496934128    9.23186964645984
H        -0.64020324798967   -1.09909382186161    9.81260314056654
H        -0.90887759194244   -0.38897990290625    8.22195004702766
H        -2.61125323750382    2.98983220412250    7.35371284940166
H        -0.87007629652591    2.85596120732432    7.62823534560124
H        -1.79716458008646    1.44390548369053    7.11259622566451
H        -3.76509488411549    4.34598473513805    9.08099085395515
H        -3.34469673142047    4.83403402626170   10.72384594618216
H        -2.11894628040468    4.85262938700627    9.45911819570387
H        -3.06650431202123    2.41496325743263   13.48367871140956
H        -1.49180797020770    3.14852290106918   13.19125062153461
H        -2.95115006170945    3.98863670653244   12.68309235798019
H        -0.05504226750944    0.69809801606493   12.56154435619069
H        -1.63026104774119    0.33001451454806   13.27363133943094
H        -0.92675411610952   -0.76030584018567   12.07869680442101

