26
CSD_code = GALFII | q = 0 | S = 0 | Stoichiometry = C10H12MnNO2 | MND = 8
Mn        2.40461707097637    2.89999178031333    4.47102920110822
O         0.45118376785955    1.04669942207810    5.61151520901793
O         2.32136921752999    4.65138220639257    6.80880592777000
N         0.89361332724571    3.99610464535895    2.25784849602489
C         1.21924724966668    1.79068830918399    5.16998346811767
C         2.32786420278157    3.96383092076434    5.87917054149692
C         0.96866895032144    3.83795450885182    3.57875156390280
C        -0.22904976437668    4.48316505231625    4.24536167788231
C         3.63720234697893    1.17735569788501    3.88862236939024
C         4.33376696524115    1.99215407921033    4.81296441972892
C         4.50474601685204    3.27491280125719    4.23849109990824
C         3.89383448736754    3.26662570229980    2.96739775192599
C         3.34461387537715    1.97919170062750    2.75727033382257
C         3.46024802924660   -0.30766235140773    3.98264081219608
H         1.60866153996584    3.64697718908207    1.63917793807196
H         0.10280778736840    4.46100356219678    1.82504622174293
H        -1.11411165164155    4.44480685204138    3.60724155594393
H         0.01127839493979    5.53024444335917    4.43701978661146
H        -0.45111418268849    4.01455917407086    5.20286306647315
H         4.80890143451798    1.64097075841829    5.71926999233885
H         5.13012301243270    4.06467441867218    4.63416268332675
H         3.99082523377256    4.04904591974295    2.22333931698348
H         2.95775463681624    1.59646470118991    1.81944921317601
H         3.34096459414585   -0.62540309024297    5.01713348304597
H         4.34488945239067   -0.80356930168160    3.57430033258296
H         2.59219400491215   -0.64016910197979    3.41494353740962

