47
CSD_code = GALGIK | q = 0 | S = 0 | Stoichiometry = C18H19F5N2S2Zn | MND = 4
Zn        2.34477769926966    2.78166580151344   10.82795225302628
S         2.23217489498618    0.73125183506367   12.11092392595309
S         1.50920221812303    4.89018004133330   11.09437687429578
N         4.38206976330445    3.65068151612110   11.42282579726764
C         0.03481487426814    0.24173772352902   13.64597140759013
C         3.83082623799926    3.04689664105499    8.20483885179782
N         2.99639446320175    2.23304192917277    8.85176506518991
C         5.19445637670982    3.72142061748485   10.20388481332600
H         5.58592018597532    2.72045417881058   10.00525741843590
H         6.05259756422591    4.38949824323217   10.36650329275338
C         0.53882481221486    0.75635258432679   12.44130929063697
F         0.03291651038563    1.74098329043880   10.34575699292647
C         4.40060619726588    4.19639236307776    8.97480710413491
H         3.57335688605621    4.83315637604692    9.30245801994460
H         5.04811631222487    4.78245147088015    8.32245392335672
C         2.48877429544766    1.17965059998270    8.22296388767775
H         1.83009808424491    0.55252048759982    8.80524891289126
C         2.56781447696704    6.75007309077376   12.76777190559415
H         3.26924267061781    7.03642402712616   13.55005973030142
H         1.55778768767045    6.96718578031838   13.10406529218814
H         2.76163569681806    7.34763947411419   11.88023830962372
C         4.17093629911683    2.81850250451926    6.87520066311766
H         4.84660438869385    3.49162398301643    6.37063650579152
C         5.07085261319921    2.81633202301455   12.40651262295843
H         6.08373895791093    3.18835193990717   12.60381443573113
H         5.13192840734453    1.79311724646559   12.03919490079187
H         4.51496295320614    2.80356755068668   13.33894995629955
C         4.13189665519596    4.99796635744250   11.95861244781748
H         4.32754234257798    5.73106660858212   11.17261514468713
H         4.82502343064533    5.20377947534781   12.78426439639894
C         2.77855627929340    0.88437888305326    6.90393206196714
H         2.34286016292587    0.01932489742207    6.43140007720634
C         3.63528707616888    1.72813870650985    6.21317513562617
H         3.88474725922082    1.53719116254246    5.18030740933419
F         0.88425824251302   -0.24062254116588   14.56023412108760
F        -1.76396147227478   -0.25704917554690   15.08904040260968
F        -2.62331379606832    1.72039355546726   10.88446585870981
C        -1.32204924579884    0.23294345744873   13.92515876836208
C        -1.76469961524082    1.24581792842041   11.79283229346591
C        -2.23391910531323    0.73639076111130   12.99970426338633
C         2.69704244914814    5.26083087839767   12.45131700881282
C         2.33213455818126    4.44506685552349   13.68597088630865
H         3.01104321238985    4.67191719770925   14.50784780343823
H         2.36517710146849    3.37425940082630   13.48468646218598
H         1.31945052118870    4.69335003781922   13.99677478314077
F        -3.54567410765666    0.72639687859525   13.26698717495844
C        -0.40573347601472    1.24450535488390   11.53193134689503

