117
CSD_code = GALGOQ | q = 0 | S = 0 | Stoichiometry = C46H65Cl2N2PRu | MND = 5
Ru       19.62264310479164    9.55803395946936   16.91780645817757
Cl       19.42206773370556   10.24812795951148   14.66714761786645
Cl       19.56096669474582    8.44619656609680   19.01453950680664
P        17.49248574479851   10.44934932506568   17.44234003833496
C        21.20945629365481    8.40657788885135   16.36411497845804
N        22.49465641007507    8.72185827296327   16.53238951891548
C        23.41510440876168    7.66849476881457   16.11191666449879
H        24.00134581477724    7.31817164861375   16.96686232710434
H        24.10846872642039    8.05079635666571   15.35697704354454
C        22.47054245943395    6.60242715876641   15.57064370718556
H        22.59271183008316    6.42971025385329   14.49612979470866
H        22.57120858702809    5.64237663562658   16.08461327781628
N        21.15412704477162    7.18056440293328   15.83429475243624
C        23.07101187209561    9.93108828640577   17.00450152808388
C        23.36954610257192   10.94426286097767   16.08922982312178
C        24.04142094516813   12.06843750051662   16.54273636386920
H        24.26976649231818   12.86092912188504   15.84477017680236
C        24.42958490339711   12.19680097445914   17.86805507644517
C        24.12621198949173   11.17337428510343   18.75451148276854
H        24.42486065332721   11.26331863341019   19.78961180110207
C        23.45770823122344   10.02998150142003   18.34413102752548
C        22.97420913376185   10.81677289613595   14.65203946538406
H        23.12637169235936   11.75769810727234   14.13124780740825
H        21.92278414037763   10.54344661197424   14.57279349684041
H        23.56407465175930   10.04843888215306   14.15115936978167
C        25.15112840271451   13.42253989204056   18.33696708750309
H        24.43015811721515   14.15989587709503   18.68941738680408
H        25.72042694799503   13.87084851039523   17.52638066533263
H        25.82524995729481   13.18745647770279   19.15746179410917
C        23.15511987260865    8.93027757807712   19.31496476563190
H        22.13588950012084    8.56771223667587   19.18440636635005
H        23.27071069625068    9.28171450756212   20.33695441248108
H        23.83375092677599    8.08909115190204   19.17064017769321
C        20.03851640345238    6.41737133652665   15.38836958516233
C        19.62173030346392    6.52073017438346   14.06004560193250
C        18.62057437095913    5.66791807632238   13.60951496691013
H        18.29087299031235    5.75411137583750   12.58354550236890
C        18.06794679500318    4.69884058507363   14.42851449828264
C        18.52227358641556    4.59754115274619   15.73813950716219
H        18.11705509402524    3.82582642749426   16.37826475375648
C        19.50052486923476    5.44224351866785   16.23800891919265
C        20.25585173431563    7.47414165389734   13.09440211381052
H        20.81360397097209    8.25633845696064   13.60084947613731
H        19.49421069126284    7.95261003652936   12.48285426964767
H        20.93088379649946    6.93274248198763   12.42893970483100
C        17.01460377738854    3.76009861255316   13.92440862588801
H        16.11604351455737    3.83557903518241   14.53506338588873
H        17.36831584167198    2.73114271287943   13.97979031188768
H        16.75479544049274    3.98263626497513   12.89256247659084
C        19.98449308255870    5.29260043651254   17.64579284477762
H        19.36803056238049    4.57951706309250   18.18726675097023
H        19.95365082152242    6.24681005181791   18.17353842150759
H        21.01455716117019    4.93635409964774   17.66726101456211
C        20.60587936719910   10.97229630703844   17.75330523470538
H        20.95546323932681   10.72088523520204   18.76452457427110
C        20.90074839683207   12.33305946341449   17.43380441066265
C        20.72892920405031   12.89907938138702   16.15857378171265
H        20.34958382512525   12.28284028857103   15.35996426337785
C        21.04188554456915   14.22081940040197   15.92190668870002
H        20.91031380429120   14.63128850775874   14.93128808236609
C        21.51326129575376   15.02903722672506   16.94545152830889
H        21.74831073041701   16.06670122197967   16.75764609134223
C        21.67807439106241   14.49656593951832   18.21527119550048
H        22.03203466875288   15.12435146763436   19.02146122257469
C        21.39212576675596   13.16987912203141   18.45440666459372
H        21.53314734237833   12.76210256190825   19.44552005894534
C        16.88750332030395   11.79105119524041   16.28032952046020
H        17.43383339776512   11.56067907520421   15.35416693515665
C        15.40422856553967   11.87305879488445   15.92162161661655
H        15.03767448746835   10.91882329442479   15.54008323775022
H        14.80851087205418   12.14614813337076   16.79463438114358
C        15.21007698267555   12.92214819637067   14.82467190341835
H        15.75060652309916   12.60340418241523   13.93054944892363
H        14.14960249359404   12.98992866857219   14.56944519462120
C        15.72909069472335   14.28823138625574   15.26048256353578
H        15.59699809618643   15.00942088147727   14.45122635072181
H        15.15059437631636   14.64070869028839   16.11854788525915
C        17.20162815104797   14.19194874452582   15.64607307738986
H        17.56888195344793   15.16381524635332   15.98336622492200
H        17.79097452705045   13.89260163181249   14.77765843403053
C        17.37891443116121   13.15917659608079   16.75424280416529
H        16.80347231858666   13.48219596734811   17.62414654661755
H        18.43141852511839   13.09288433966442   17.03735105940285
C        17.08168880349300   10.90549078044345   19.20312960527565
H        17.23188558221742    9.94999949573558   19.72592339821985
C        18.06995276442642   11.88271720683163   19.83659527061099
H        19.08566500706398   11.52709553487163   19.65519567977032
H        17.97822473445346   12.87743157779243   19.39974338019117
C        17.81006587422871   11.96671710461024   21.33892567133638
H        17.97803740793906   10.98600558749614   21.78921233582804
H        18.50970835249511   12.67009668399042   21.79549829220677
C        16.37560605550363   12.41260065712267   21.60824862692948
H        16.19137983757413   12.44899835286529   22.68405893290607
H        16.22961777729581   13.42013492894966   21.21039492845764
C        15.38571306726105   11.45951405400335   20.94502545768346
H        14.36276147584489   11.80026308547672   21.12281975088478
H        15.48909625879996   10.46589592734558   21.38777246116882
C        15.64866182761944   11.37503363297662   19.44207653196784
H        15.50369160574954   12.36427368935494   19.00469961407362
H        14.93151635621515   10.69235046587284   18.98171850191919
C        16.29335402417071    9.05618246550126   17.12203279884976
H        15.29595300093042    9.48117575880115   16.95553532965140
C        16.77533747833546    8.36972239173352   15.84094742877798
H        16.87308329875417    9.09821821636181   15.02919352491209
H        17.77714475026298    7.93358975950495   16.02933472115345
C        15.81258369375140    7.26573946783703   15.42156258276064
H        14.84365461781075    7.71351683833780   15.18147037979336
H        16.18625933883051    6.77133472438873   14.52297185259707
C        15.63954388148038    6.24798781307753   16.54365038058047
H        14.90924215705880    5.49003725910648   16.24988480220519
H        16.59373183827020    5.74951090118436   16.72098961306134
C        15.19079427352218    6.93203325509614   17.82902257460940
H        15.10500455255757    6.19548420523195   18.63088004009594
H        14.20333251925176    7.37921922630846   17.68022798869055
C        16.18120520514340    8.01921196299253   18.23963265629773
H        17.15868743149527    7.57250009464570   18.43841965326746
H        15.82654296801844    8.47936110281408   19.16299575990526

