80
CSD_code = GALGUW | q = 0 | S = 0 | Stoichiometry = C33H38Br2Cl2N4Ru | MND = 6
Ru        2.30473234608250    7.80591221279758    4.65975447457051
Br        4.15571548027938    4.54106879418035    0.23436025335769
Br        5.40980664140189    5.63706563151961    9.18639450987227
Cl        0.63270968352553    6.43903840882603    3.61994063204936
Cl        3.89369112164504    9.20661378803148    5.75267292925266
N         3.85525604662576    6.81692000069754    3.64492631028797
N         2.77973033194677    6.16462786330440    6.08495897434091
N        -0.04806995428142    9.60497908918297    5.18584253801194
N         0.12038498168757    8.11941876959404    6.74385781770101
C         2.17281431616295    8.93400520346651    3.12432477588148
H         1.39980743044810    8.74892730770748    2.36616752200663
C         3.21322287116791    9.82942206696885    2.57845214922883
H         3.91991652213196   10.17098293401468    3.33305904871635
H         2.75377471423595   10.69387822145224    2.09333393398430
H         3.76366693250884    9.28914345731914    1.79899482555923
C         3.61273426065256    6.16304879283757    2.50576601672700
H         2.59993732848455    6.19655714885165    2.12007100194790
C         4.59319577231423    5.44367178067033    1.84684750179120
C         5.88339953951712    5.38395248290794    2.35424246061782
H         6.65741585254067    4.82973384307632    1.84742079416555
C         6.12638305343371    6.07297980182497    3.53135607325313
H         7.10941275503390    6.07504972233540    3.97478956318592
C         5.09694078837277    6.76789775298679    4.13953076618816
H         5.28281629443292    7.33875127998496    5.04132536229220
C         3.63179262413500    6.34423809390675    7.08965063556203
H         3.87647395496178    7.36510163196567    7.35640473737466
C         4.21384825377322    5.28173438005329    7.75877466509597
C         3.92278748446796    3.97801310213586    7.39394509600297
H         4.36801681451548    3.14098053965231    7.90924079184871
C         3.03699161688062    3.80299954892472    6.34369823469688
H         2.76776055732933    2.81325928161306    6.01031330794509
C         2.49166033000263    4.91292246417604    5.72346741325340
H         1.78065855497491    4.79770446817384    4.91377206934785
C         0.72544057730623    8.62618532415387    5.66367680280233
C        -1.27300722536408    9.81159189791891    5.95484962073970
H        -2.14787064004854    9.66541042738287    5.31668863322697
H        -1.30420104032954   10.83313579591242    6.34867674521768
C        -1.16231301873740    8.75114854548378    7.04450342429767
H        -1.15119541130233    9.17044097466872    8.05574531342597
H        -1.96505878674158    8.01041159022301    6.99071123203661
C         0.22141755393954   10.52373823580153    4.13590312995401
C         1.01982611582580   11.64319767732318    4.40004904158463
C         1.66622650971154   11.83307659066813    5.73340023627841
H         0.95867339070396   11.67876169559009    6.54562868302774
H         2.08501910738339   12.83203227809761    5.81778679137117
H         2.47454827088258   11.11215797580467    5.85532590917826
C         1.20910345477059   12.57521070823129    3.39183864348861
H         1.83796438383385   13.43327025967306    3.58164334916726
C         0.60681477494700   12.43652463684748    2.14830325054811
C         0.82095221860670   13.46744260285968    1.08195986459787
H         0.60656111610763   13.05988074821573    0.09700638207268
H         1.84522949168010   13.83390887718720    1.09900407103597
H         0.15916003837605   14.31781552449649    1.24882806281042
C        -0.22106503603305   11.34558438654855    1.92882784844752
H        -0.71257355333607   11.23594344049002    0.97237737783909
C        -0.43844515615674   10.38814166669529    2.90935288870948
C        -1.35737727144843    9.23642352340350    2.64131911657092
H        -1.43696161474952    9.05479558908412    1.57227173985535
H        -2.35888372771852    9.45303329102722    3.01542708859785
H        -0.99913851761973    8.32856934161141    3.12246802828918
C         0.62703102515010    7.20316607007001    7.70441691309508
C         0.19574956347684    5.87602635478249    7.69910702376367
C        -0.76220310054730    5.37349630841147    6.66496262342354
H        -0.70386271561432    4.29063795359696    6.58577997074930
H        -0.55258522661088    5.80726245946508    5.68865970346293
H        -1.78543015469703    5.63282738770748    6.93968565733440
C         0.67394765719880    5.02138405262623    8.68353183285552
H         0.35795201427407    3.98732982080860    8.67567530872892
C         1.53642943177411    5.46184125419494    9.67546005518521
C         2.02190239610088    4.52792148567289   10.74185499791107
H         1.98180672944867    3.49509975614233   10.40223822575359
H         1.39139926763797    4.61731015141586   11.62713031917804
H         3.04175568771893    4.76803265318495   11.03492626620655
C         1.92293641638527    6.79557751593178    9.67679469528825
H         2.58713323851863    7.15234461608022   10.45125957505967
C         1.47913701152474    7.68048802050545    8.70573584956523
C         1.91833243282692    9.11162851922322    8.72030312092596
H         2.45237024114339    9.35667326722640    7.80133555739164
H         2.57914418150982    9.29975773339454    9.56228136430866
H         1.06402259690167    9.78336114900751    8.79623047851404

