47
CSD_code = GALGAC | q = 0 | S = 0 | Stoichiometry = C18H24N2S2Zn | MND = 4
Zn        6.17118625604826    5.82488412209912    1.70612653030843
S         5.74380916645873    3.93781342767393    2.99347413527843
S         6.20370194505085    8.17423275444515    1.49357905064085
N         6.12237748103198    5.28721286948091   -0.42977255807425
C         6.89980894203759    4.30656244479469   -0.88407254774713
C         8.48583436572476    4.26804931689399    3.04260302364469
H         9.38156292413994    4.46473751043871    3.64597195873036
H         8.59519409649097    3.27118776759734    2.60870168221030
C         5.45176328157207    8.72165421503992    2.98190924132115
N         8.38855973579689    5.25497371924156    1.95590834273746
C         8.82675913679744    4.67049673273942    0.68419962753779
H         9.80287412648286    4.18058317912751    0.81818345496824
H         8.96002411637370    5.48958099814016   -0.02734317112514
C         7.26903710163221    4.20934872663970    3.98338552270838
C         7.82187085690097    3.66146265399118    0.10111920791022
H         8.35713197548526    2.84448311938976   -0.38300656244415
H         7.21424007783296    3.24803979045698    0.91159750777562
C         6.86454294500289    3.91935212480935   -2.22011728431530
H         7.50193346002856    3.12001204936510   -2.56563760934447
C         5.74433628519216   10.00540790042218    3.43769562984151
H         6.42907631131607   10.61770150576130    2.87041544046407
C         7.11894867008124    5.47005998623196    4.82644416464502
H         7.99833947542080    5.61565332545696    5.45434858398656
H         6.24670248378740    5.37667013418879    5.46983116143846
H         6.97726349980009    6.35468177461131    4.20476215004686
C         5.21566308525931    5.59704092006104   -2.60655860651754
H         4.54074215747599    6.13632687099878   -3.25109091166523
C         7.43187268616495    2.99783124694809    4.90045936775097
H         8.34361938242316    3.08473366529924    5.49021079965214
H         7.47237221573893    2.08064008882334    4.31736617127400
H         6.58183758696042    2.93034139082026    5.57389745426551
C         6.00889560120102    4.56849848273253   -3.09221742376301
H         5.96558857706298    4.28204433639550   -4.13247991030873
C         5.30877084466253    5.91962361896549   -1.26508995131266
H         4.72168600175444    6.71933724686614   -0.83553512724671
C         5.16408047982323   10.47947596023101    4.59722500073231
H         5.39920985240452   11.47654385413506    4.94154127984554
C         4.56232966065370    7.93126654102715    3.70126893684956
H         4.31410407156085    6.93628711061088    3.34337505897457
C         9.20963090548256    6.43044280127040    2.24254065766359
H        10.27838947811965    6.18078046982995    2.23857573945847
H         8.94892783503705    6.83766201705289    3.21558927449355
H         9.01910891057353    7.19830896725893    1.49423241549712
C         4.28847519541260    9.68413959809675    5.31920850291387
H         3.83865784302008   10.05545747106715    6.22812769633094
C         3.99121317176586    8.41015446068543    4.86474901300443
H         3.30614574097212    7.78242073178494    5.41639787896382

