99
CSD_code = GALJOV | q = 1 | S = 0 | Stoichiometry = C52H40IrN2P2S2(1+) | MND = 6
Ir        6.69975045953656    3.40843205237286   12.47900208714201
P         7.96977685492397    3.13085706143085   14.53078794137582
P         6.12112979209822    5.52963907067595   13.50949942093608
S         2.24030386112969    2.61547409617103   12.29132730940604
S        10.65820252376169    2.78541357977598   10.36026955684895
C         7.06858372598799    1.54570166882435   11.72084595516372
N         4.72048585772463    2.86577831814944   12.97892338135891
N         8.59596486443195    3.72692507862255   11.60420194686440
C         6.31139931707847    4.16873343937131    9.48356712325843
H         7.36560665811287    4.39622171397531    9.40430412244073
C         9.08339693874165    2.62983598787129   11.05669388913987
C         3.40953995790170    5.81368284001015   13.20907763896955
H         3.68570527175807    6.01079760345683   12.18066246933009
C         6.27351087646975    0.40571920861413   11.76612981916410
H         5.30083389045383    0.43055682722756   12.23809599604408
C         8.63149627317290    1.72359037810297   16.87717921419891
H         9.07710987371033    2.64273623200496   17.22946732032762
C         9.47016003325943    4.77863131294653   11.49946087940026
C         9.28792714425085    6.08011724019161   11.95716398753251
H         8.35815783953059    6.35084805007121   12.42932004679767
C         3.89343553700842    2.99787547489775   11.95911558666123
C         8.01697044529539    1.67220822427459   15.62954166943092
C         4.38910578190219    3.44846697865427   10.69574760890643
C        11.78855141143969    2.17634215798244   13.55939140757791
H        12.29035541500071    1.28566918342156   13.21263065777076
C         6.10283369746926    7.18486030439167   12.73637425203739
C         3.80265065153781    1.81015205039439   16.40055620084919
H         4.23211243887025    1.62093292047984   17.37233000060451
C         6.17400691778675    7.27660320202002   11.35004300261801
H         6.28301063861430    6.37463860942074   10.76314442304419
C         5.94725307884410    8.34029637585007   13.49624750335339
H         5.86154233709720    8.28007742521067   14.57158550219502
C        10.29084708345432    7.00733533845503   11.77986367920158
H        10.14662721057632    8.01744203534603   12.13133044339022
C         5.51882393395897    4.33498746907662    8.35794847212615
H         5.96930743236842    4.68111464833723    7.43940762456303
C         8.13807071177993   -0.60190786205262   17.21409422340258
H         8.18438410489475   -1.48422274938680   17.83367549912961
C         6.70163501758920   -0.79070084199660   11.21098661712259
H         6.05985195959964   -1.65787666638454   11.26175000306575
C         2.68409539448565    2.26483363453074   13.93540922217795
C         8.31671217293616    1.42307333557015   11.07877196757567
C        11.68771184905321    5.38281982396088   10.67780005907094
H        12.60354829976884    5.10495612197142   10.18194055671452
C         7.57816041800229    4.50858776749461   15.71778518298869
H         6.76065354300646    4.13780821984320   16.34426929641428
H         8.43796206145089    4.68839694481603   16.37022485725787
C         7.48101991461616    0.47187255769172   15.17447163509856
H         7.01546091268129    0.43436827349818   14.19905645115652
C         4.61944125875469    2.21053538786076   15.36656211141725
H         5.68046535444362    2.32897792191389   15.51016369496058
C         4.40935036211140    5.56959101839301   14.14986204211474
C         9.77425928386053    3.28264641257647   14.28212115964729
C         4.06835850743530    2.44854975627992   14.11116996203990
C         2.43240484542371    1.64346956190875   16.21159069214381
H         1.81251688138553    1.33256678113808   17.03734526641852
C         3.58612313055603    3.61643376654136    9.56585704318015
H         2.53044545930666    3.39373680000790    9.62291994087135
C         6.10842529978238    8.51160016345286   10.73051006117586
H         6.16309421519046    8.57541328969011    9.65439219300295
C         5.77095394150911    3.72401421237462   10.68528039749044
C        10.43401229689763    2.14141392285280   13.82786565513431
H         9.87513631168623    1.22431013652565   13.68996157781902
C        10.49202430511115    4.46107383179831   14.44660233593601
H        10.00638729815219    5.36352027127905   14.78578303489672
C         4.15763875532271    4.06204992070623    8.39479513918106
H         3.55451340972448    4.19607881732894    7.51057227584067
C         2.71831937057729    5.30569139266674   15.83785232505239
H         2.45167497762316    5.10617452898601   16.86477658693434
C        10.67710489653827    4.45272754934427   10.85279709909315
C         8.68399260332679    0.58933818910382   17.66600837730374
H         9.15877978976276    0.63323539333242   18.63460725185492
C         7.54172296040032   -0.66118185557223   15.96557533014847
H         7.12409957130169   -1.58940417046826   15.60627434522826
C         2.07991041841929    5.80787514170879   13.58262697193008
H         1.31417333091075    6.00124061305265   12.84662879970710
C         4.05225726833901    5.30998727873465   15.46709025375346
H         4.80280410455579    5.11093626583253   16.21679921891975
C         5.88892675063716    9.57243104022900   12.87193711380832
H         5.77169616450143   10.46708981549202   13.46463361436612
C         5.97125762977426    9.66071022327231   11.49111990930725
H         5.92188385367659   10.62523628304583   11.00975648464540
C        11.48572492752994    6.66349541510998   11.15127260068379
H        12.25775528347014    7.40606819439339   11.02727214593547
C         8.75420360882191    0.21998227202311   10.52129835730066
H         9.72122647649447    0.17413824941713   10.04162083727600
C         7.16359889129366    5.80591287027863   15.02425928396725
H         8.04936398571489    6.34912020828314   14.67969652768976
H         6.63136230553111    6.45498334464085   15.72611640730451
C         7.94059837488971   -0.88891710616715   10.59138207251633
H         8.25998202076083   -1.82700599727179   10.16527836548028
C         1.86100246823369    1.86683591297117   14.97526282776915
H         0.80336282827530    1.73643490309097   14.81320446406017
C        12.49926422076803    3.35410625168623   13.73165205404316
H        13.55703539023464    3.38320122789752   13.52074626010023
C        11.84939139268239    4.49206383555347   14.17606347874224
H        12.39828350592905    5.41193887084819   14.31068494507706
C         1.73143294331438    5.55054203233856   14.89958092056147
H         0.69311438392665    5.54332713588485   15.19279647499193

