45
CSD_code = GALKIQ | q = 0 | S = 0 | Stoichiometry = C20H18AgN3O3 | MND = 4
Ag        3.92237768475583    4.31400497512697   12.13023733427862
N         2.85292517061379    5.21749611289583   10.32221246865445
C         3.75941738950153    5.15813037384923    9.31117904738540
C         3.43531923774250    4.62489562200462    8.03785016569294
N         3.59267060484320    2.02706858628615   10.59800321827162
C         1.62588636162990    4.78792215158612   10.10775908085822
C         0.66514399946732    4.84199926446694   11.24962892840998
H         1.01746684835120    5.54866371035349   12.00106420512159
H         0.60774265475432    3.84856880057475   11.69606693841273
H        -0.32868780535796    5.12582571733865   10.91119886367292
C         2.71849479124305    4.80815517006479   15.04919377809339
H         2.36226436762553    4.45156570759212   14.08422463160612
C         5.06564995745642    5.62776734687366    9.54661741117491
H         5.28229959363100    6.05744100736629   10.52064586792048
C         2.11696128213531    4.16229515895199    7.84258918853405
H         1.84084622849828    3.72987637897829    6.89211646892409
C         4.09652678777238    5.05476820562254   15.18546366780312
C         5.70317249951993    4.99803823631501    7.31470589449828
H         6.47175606742174    4.92978658463258    6.55937204589474
C         6.78700977441095    5.46209543538047   15.44410683135132
H         7.85641261686975    5.59965010665051   15.48909165548827
C         6.01769792877561    5.54393312066242    8.56830407725464
H         7.02219700731351    5.89419597987502    8.75497059297435
C         4.43764539841367    4.55223934876134    7.05178076331532
H         4.18802217401863    4.12521765823003    6.09149412090748
C         1.21833937968320    4.25878604108100    8.86627159537597
H         0.20391640900665    3.90907818075873    8.75393720691972
C         6.20003850405014    5.04251166211691   14.23051658556477
C         1.87581778673609    4.99010580597380   16.11052809905328
H         0.81948364081222    4.79405665845897   16.00566412970669
C         2.37516888551711    5.42728600577481   17.34806727404027
H         1.69346703968224    5.56744969084254   18.17334652501274
C         4.60616496596865    5.48087110823069   16.43922338037734
C         5.99869751643750    5.68891076819565   16.53653339843024
H         6.42222517439440    6.01649490386096   17.47509459291928
C         3.71217528052272    5.66532560330032   17.51200810414909
H         4.10448404424891    5.99254132029189   18.46390460504236
C         7.04915454116011    4.78896204612921   13.03048656591795
H         6.47465338418736    4.25219373993280   12.26842757131349
H         7.92200478963508    4.19844556884956   13.30091015208972
H         7.39937957258183    5.73295148730831   12.61312992958486
N         4.90347040267899    4.86499965388498   14.11438736125629
O         2.73381709224501    2.34553440000738   11.44138642096661
O         3.34504056423445    1.21859738036915    9.73767783218528
O         4.70578240480475    2.57589721420565   10.66482142358435

