59
CSD_code = GALNUF | q = 1 | S = 0 | Stoichiometry = C22H32IrN4(1+) | MND = 6
C        -0.31394934899290    4.05790136426007   16.46816065381583
C        -1.89658638755249    4.99656748960155   17.77407711804634
H        -2.30712418561685    5.46951043168667   18.64089906580557
C        -2.47764526878409    4.63014551130098   16.61163718680313
H        -3.49540167415332    4.74129245081732   16.31032761505264
C        -1.74451205863629    3.60707463352128   14.44396928659036
C        -3.24112023185052    3.48214197662150   14.15519266476551
H        -3.73093952353764    4.45192609639564   14.13798743525169
H        -3.73043682007596    2.84223081199486   14.88550403799782
H        -3.37088198543217    3.03222980445735   13.17473993662008
C        -1.09117413369572    2.23998622824440   14.24547199694019
H        -1.16832312404785    1.93968194804759   13.20504444495098
H        -1.59344404890068    1.49767823807991   14.86048429772763
H        -0.04058494822807    2.29684745226953   14.53321691992826
C        -1.12680667928547    4.64486338511377   13.50228118727891
H        -1.58746842575591    5.61707356376556   13.65917613882703
H        -1.28600087278113    4.35233481375792   12.46909337887082
H        -0.06057298168822    4.72772897864552   13.69033624216396
C         2.18278954121762    4.33613028012787   14.67486584420943
C         3.10185748823436    4.54041236766841   12.62423521219599
H         3.41518786264544    4.23401388557138   11.64877009857448
C         3.20444194760249    5.73321732965856   13.24860388784063
H         3.63125589440121    6.64155406448261   12.88566033489407
C         2.49805387960413    6.71473219612244   15.44408574595952
C         3.38284457977318    7.89622323878466   15.04399455299059
H         4.42018537737994    7.59036588528318   14.93179047965830
H         3.33735246416564    8.64715067883441   15.82790920851844
H         3.04150371829560    8.36245678534537   14.12381071618600
C         2.90986794296427    6.24391032318984   16.83831998243259
H         2.34694643407391    5.34609127064137   17.09671921030228
H         2.70830205350821    7.02278011624772   17.56729350392280
H         3.97330031370513    6.01938683691591   16.85347597889812
C         1.02933703567674    7.14843177250061   15.43069585815898
H         0.74037624207502    7.46915463841061   14.43289810707385
H         0.87951659084467    7.97802994195877   16.11462142265760
H         0.39520461560934    6.31929933702742   15.72990203878701
C         3.51432061941539    2.35703325030026   16.80427197018653
C         3.04170689260383    1.57893626437162   15.98008827800413
C         2.32414548534600    0.38804814936088   15.51609599348590
H         2.98173110919895   -0.48178401726996   15.58098163557464
H         1.98595791635539    0.47800873277251   14.48227237372468
C         1.08031768787698    0.20052447090754   16.47109236488748
H         0.16484137846896    0.14033856224292   15.88363287578058
H         1.18274522313396   -0.72593234763104   17.04078113529703
C         1.07586707440725    1.33145036273423   17.39977210578823
C         1.52694534076808    2.14651650775425   18.19984419993415
C         2.55579822298807    2.80013960208641   19.01374636861056
H         2.75002702106775    2.20019674564188   19.90564141157441
H         2.26211410650056    3.79998263581500   19.33807307630443
C         3.85795935300995    2.88725603314411   18.12429652810090
H         4.21073481779809    3.91702659019575   18.08027176681183
H         4.64961601309198    2.27269726373597   18.55892896120536
Ir        1.51722676667324    3.18920072773049   16.22677544847284
N        -0.58216813165940    4.64085599002489   17.66673264992532
H         0.10578601570035    4.78984746882506   18.38563992775644
N        -1.51273030986245    4.05425533677482   15.82342164468832
N         2.47787566629715    3.70554786685110   13.50711722873952
H         2.26279068632163    2.74074461906859   13.31931817657213
N         2.64983976173794    5.60235305720957   14.49735208787773

