86
CSD_code = GALSIV | q = 0 | S = 0 | Stoichiometry = C33H48FeO2P2 | MND = 8
Fe        1.50954826483393    7.68923179578837   16.67151744243147
P         1.38177988802602    6.16523297019162   15.05422449606579
P         3.41208590498211    5.58362561993516   14.56826713818463
C         2.91390700417644    6.97378519106544   17.41463072354669
O         3.87953750683102    6.58489582608756   17.89745684056822
C         2.64556132459879    8.63662784809651   15.75123290583249
O         3.44546816457593    9.26914409556452   15.22460043465069
C         2.21973578465733    4.65599189907764   15.63472967675743
C         1.72126742689261    3.25429293950089   15.71183249818976
C         2.24562276444581    3.94184584899025   16.94023957053441
C         3.20639070704792    4.51648513658621   13.07319875464481
C         2.26956789897312    4.78864215111313   12.06664481715084
C         1.71216639192744    3.70736345591364   11.38701999052985
C         2.12136070429197    2.40522724146315   11.60187841368806
C         3.26965979099030    2.22610778259569   12.36666314869210
C         3.85222786864946    3.25788001710991   13.08189341730443
C         1.93825854624790    6.17710290459664   11.51592997692046
C         2.34655996063503    6.15591340821086   10.02849733791455
C         0.44128771145772    6.48550718047317   11.62372884179443
C         2.72875472089917    7.32326721539359   12.15165943901916
C         1.44032586813446    1.20030232037671   10.97374227417572
C         2.40035626811861    0.53333500550159    9.97893217721090
C         0.15693759205901    1.57428580830119   10.22685934919178
C         1.07044714808248    0.20791854395763   12.08520917988139
C         5.23613000945587    3.05838367367248   13.70907280130226
C         5.92194075690799    1.79484825850263   13.16613581392982
C         6.11854253387709    4.24818784778524   13.30316429476098
C         5.21452749558047    2.93991786993133   15.23578487235671
C         0.59128174570466    8.70832200285451   18.37855291214281
C         0.03153742283742    7.38723532020348   18.31162213494864
C        -0.70963478051949    7.28403425966131   17.10463421013883
C        -0.53298181930603    8.50166151704946   16.37719316819908
C         0.22724460490599    9.39986871509267   17.18925192673223
C         1.25013965194281    9.30869666178022   19.58036073238144
C         0.01788964644263    6.41350398677935   19.45007119743675
C        -1.58823124819635    6.16001615302381   16.66823709968025
C        -1.24530787861968    8.83604183621172   15.10503436891549
C         0.44163017770845   10.85649088352413   16.91887186939457
H         2.31124856011285    2.46791138683421   15.26283680717203
H         0.65507607911746    3.08774818469435   15.63090429454001
H         3.19681055163344    3.62206558431887   17.34228393009515
H         1.53985179785468    4.25001219611643   17.70054675413945
H         0.92458107790753    3.90163719614919   10.67945634656166
H         3.70128007948400    1.24155913425195   12.41511741520530
H         1.80919085282867    5.39962433603536    9.46455426992596
H         3.41182252695878    5.95303750698311    9.93848877494998
H         2.14004970325562    7.12302944336830    9.57431833539200
H         0.13372006522223    6.46236414598738   12.66737847133329
H        -0.15555468150487    5.76338122438457   11.07291252533118
H         0.23662078038119    7.47600252469192   11.22261009283698
H         2.31548439173276    7.61874877841878   13.11300193067875
H         2.68987691537993    8.19406864854722   11.49914859504001
H         3.77512334905083    7.05034767071022   12.28437455760531
H         2.69596664318401    1.24305932338281    9.20885682369539
H         1.91577097115786   -0.31522847185193    9.50001153160474
H         3.29876780990421    0.17666678763572   10.47527195803025
H         0.37189063675651    2.20492524925823    9.36719851145074
H        -0.53796608612556    2.09178989790720   10.88439501946279
H        -0.32910548097186    0.67084410593254    9.86331892821557
H         1.95231669942315   -0.13920938534456   12.61645872306534
H         0.56459663586941   -0.65864108842311   11.66398515364853
H         0.40512489465632    0.68227141400130   12.80385597488185
H         5.91746699943018    1.78181193780684   12.07856135518531
H         5.44955107814481    0.88834858181903   13.53816113462442
H         6.95800217833859    1.78223450235787   13.49910328093411
H         6.14198816131819    4.34600692029275   12.21944656765589
H         7.13564451408331    4.09911349969639   13.66004139130528
H         5.74757394899367    5.17902328307852   13.72619165939377
H         4.87162191000732    3.86394400951610   15.69415922280707
H         6.22066830794343    2.73851608051706   15.59956110922957
H         4.56929269623281    2.12223826217869   15.54995145319003
H         1.94281701239159   10.09557815128534   19.29231652246088
H         1.80097305640249    8.55596960972329   20.13868982411877
H         0.49715307349441    9.74113129943113   20.24220855844695
H         0.97900317808768    6.39565421645725   19.95884358291499
H        -0.20177580333635    5.40634226943061   19.10492289575605
H        -0.74487962665763    6.70134370089005   20.17611442187075
H        -2.59322347647794    6.53098389597414   16.46736955876067
H        -1.64697363071242    5.38719411639389   17.42996055681254
H        -1.21004582871087    5.70737585759084   15.74757989336807
H        -0.74064269073465    9.63951367243599   14.57508255271944
H        -2.26869829866196    9.15221058399271   15.31575103248095
H        -1.28346788661865    7.96602956185725   14.45284722584125
H         0.50507732321872   11.05111858858514   15.85122078491528
H         1.35668895626939   11.21139609765229   17.38648351568914
H        -0.39388345597649   11.43188431509275   17.32196992745854

