96
CSD_code = GALTIZ | q = 0 | S = 0 | Stoichiometry = C41H49Cl2FeN3 | MND = 5
Fe        3.89386428968635    3.67518765621726    5.58435755584905
Cl        5.78759192305466    4.62953883628148    5.44912408936537
Cl        3.01842898166357    4.65359494594548    7.21330149246873
N         4.68811992140221    2.16007704726708    6.56596711910272
N         4.35631763147738    2.66713070217595    4.20194725893325
N         3.00689511474849    4.74472248088947    4.16310628596319
C         4.44674495272260    1.87221418473250    7.92222331667472
C         3.36969773375618    1.02293711456399    8.23513609154916
C         3.04476719263023    0.83462771067695    9.56810128511274
H         2.21062319248891    0.20588053798641    9.83462807592132
C         3.77507517335996    1.44547674728341   10.57184381294399
H         3.50103887236535    1.29147174278570   11.60502987078311
C         4.85464634818990    2.24261550387627   10.25190889746580
H         5.42836243808752    2.70363634525919   11.04073051268185
C         5.21030234590596    2.46921898404850    8.92948478712154
C         2.58702733072989    0.35396457389650    7.12466516933996
H         3.28512714225941    0.09931514754192    6.31984457428479
C         1.90230189624115   -0.94226220773935    7.55813439201211
H         2.60419461794343   -1.59807537451809    8.06847546211569
H         1.06284238427597   -0.74210295400065    8.21884647434115
H         1.51999853071529   -1.46373633217530    6.68254578742032
C         1.55544810790909    1.32989050037231    6.55557091525726
H         0.88571663485298    1.66803041150131    7.34208893396168
H         2.05720398292099    2.20960614848760    6.13261241676112
H         0.97083859657000    0.85317132302157    5.77072606367399
C         6.40265171093241    3.33094146542160    8.59864987438820
H         6.50725533111331    3.38512676325823    7.51295582715809
C         7.68446635806016    2.72101124513679    9.17146366149831
H         7.65655735013646    2.70052482566926   10.25854739413637
H         7.81948949306691    1.70137426230841    8.81393207169009
H         8.54302234141995    3.31210703064762    8.86186063272971
C         6.19634773959819    4.75629798704989    9.11198757101484
H         5.26485823818537    5.15615076021006    8.72088048751692
H         6.15787087530188    4.78457785869085   10.19850464350064
H         7.01134224720865    5.39086915018630    8.77312255639103
C         5.37939436414911    1.36658202331882    5.79417002523982
C         6.08858158954841    0.13945451140503    6.28746112628792
H         7.16462541728135    0.32594627767185    6.31891021761309
H         5.76197786324845   -0.05460704774011    7.31180922983540
C         5.79126694265935   -1.07471432759515    5.39824904867948
H         5.87431412239633   -1.98428677818128    5.99603994932768
H         4.75789850707838   -1.01201980377061    5.04939797624369
C         6.72392466544314   -1.19782240314263    4.19256301912069
H         7.65819805542087   -1.67198848689074    4.50044551725748
H         6.25330517153675   -1.84911492890620    3.45323050427197
C         7.07461660310328    0.14454962807726    3.53926515144637
H         7.79378803225128    0.67172111697092    4.17056655957265
H         7.56184847858015   -0.05140657741311    2.58236987287852
C         5.91195695572485    1.06218151386179    3.31741075058445
C         5.25838342609582    1.66756180226360    4.39520189001920
C         5.52641086837111    1.44030284071771    2.03366801647715
H         6.00734722075288    0.98746437668727    1.17988110593920
C         4.57360742084025    2.42727009674658    1.83967169668956
H         4.30577937636686    2.75044266961090    0.84652967668886
C         4.01902914897410    3.05692534383400    2.94980136623613
C         3.15071841960792    4.20624578895138    2.97603941642208
C         2.45342486032707    4.63770422143401    1.75586799309177
C         1.82176629257991    3.67546044519865    0.96555514303032
H         1.84122245837087    2.63897271662072    1.26998340426917
C         1.14363535856451    4.04400278633966   -0.18092026879787
H         0.65247005428795    3.29001932444567   -0.77846393762691
C         1.08671027747056    5.37567421491583   -0.55868824868200
H         0.55563216514382    5.66245995230439   -1.45386190161491
C         1.71171133719362    6.33592869832139    0.21890812901955
H         1.67244078977923    7.37546088361362   -0.07014200269154
C         2.38845553714747    5.97314634578954    1.36843997433733
H         2.88089767875034    6.72394523786158    1.96243616563445
C         2.13612835155742    5.84311657055947    4.34576633954981
C         2.65754378126185    7.13983023198456    4.47580802251143
C         1.77681110524088    8.19738151147051    4.64525113933173
H         2.16657313726396    9.19759167471443    4.75214566457717
C         0.41136986699920    7.99524887892142    4.67784825868164
H        -0.25988473860648    8.83279568566335    4.79760208765648
C        -0.08927356126838    6.71346457215367    4.57765642584148
H        -1.15574925556600    6.55594978644622    4.62716540529657
C         0.75423387041680    5.62294790925473    4.42332586168999
C         4.14473514112674    7.39868194094824    4.47782406756279
H         4.66231562368664    6.48582836104653    4.17352410660908
C         4.56278572316435    8.51905674088683    3.52256250129645
H         4.22806082229362    8.32500665482321    2.50488903401034
H         4.16127257713649    9.47966830860204    3.83610446739481
H         5.64770296805496    8.59416803280142    3.51269796494749
C         4.58387921633349    7.73643387726090    5.90520363415651
H         4.14590080249768    8.67727625908416    6.23180271176234
H         4.26745729694113    6.95346653369971    6.58831227775079
H         5.66705727331088    7.81231972448222    5.95093250271828
C         0.16326596077133    4.23272412386195    4.41345435450074
H         0.97137293479556    3.50205613686458    4.28452575024142
C        -0.83627327585033    4.04916392575180    3.26966475367077
H        -1.70556906045670    4.68597951159973    3.41108467714990
H        -0.38075882674440    4.30002090456944    2.31429458823680
H        -1.17548261421713    3.01572179684723    3.23212281907032
C        -0.50477262676607    3.96224193618519    5.76450679622036
H         0.20911408533598    4.11886998453113    6.56979127157918
H        -1.34525566918820    4.63387909504936    5.91862925848852
H        -0.87123738955468    2.93893374165683    5.80740132957138

