57
CSD_code = GALXOG | q = 0 | S = 0 | Stoichiometry = C28H26Cl2Ti | MND = 12
Ti        4.69422895605968   11.98893831389684    5.58731897172149
Cl        3.55623717614591   12.85911109558633    7.32198323309527
Cl        2.76368802580108   11.26558737884855    4.75136393678398
C         4.61952859390358   13.28005181511328    3.54620886057360
C         4.31036642571681   14.05996897699158    4.68108908630347
C         5.49060975745756   14.12302808225101    5.47864005515912
C         6.51106768494645   13.39530972950163    4.82757291333937
C         5.96237115896312   12.84846638202316    3.64521138342465
C         6.55816643322019   12.43650702343095    2.33448334693311
C         6.38246158193365   13.68342348315113    1.43432361761376
C         4.88511296992798   13.98083976848892    1.22025458057678
C         4.04383176451442   13.09064072465361    2.18497701948184
C         4.25957360327549   11.62272367134500    1.78085681487675
C         5.76134579773091   11.30455510702673    1.64102651461982
C         5.21416093071903    8.88120967639028    2.20118292228452
C         5.60418482295235    7.59018351825963    2.52033133717575
C         6.94037269334424    7.28243212503983    2.69591511831271
C         7.88765371798847    8.27525746518766    2.51840079803915
C         7.49599414320702    9.56065144795131    2.19177365419718
C         6.15063244795487    9.89975039272668    2.05686051377264
C         4.98477523208880   16.20044916007495    2.45012673917693
C         4.58627632960057   17.51721351169645    2.59760307868451
C         3.71161951379908   18.09025635096052    1.69147924901622
C         3.23534373594401   17.33453574792145    0.63461295767556
C         3.63286856881129   16.01768527495628    0.49075238512541
C         4.51409583021428   15.43138136433676    1.39215932004953
C         6.43070416556305   10.45514521085063    5.42753696529951
C         6.61158422216102   11.10789554729705    6.67163799628596
C         5.53675147002950   10.75550662613915    7.50736269733557
C         4.67226767577868    9.91736675716183    6.78074924047810
C         5.22669435219808    9.72513479419336    5.49482590044622
H         3.39579193803650   14.61619042675586    4.85203108345791
H         5.61476072036215   14.73295063259853    6.36610492712418
H         7.55361724802036   13.37298971009246    5.11686506327394
H         7.61947468631987   12.19778953401417    2.42062691425161
H         6.86882731306230   13.50863654582488    0.47283302990108
H         6.88013645148163   14.53414714628284    1.90050579924575
H         4.60294257174144   13.68405974273096    0.20490002561089
H         2.98579240859152   13.35646231469575    2.12438171542822
H         3.80653164641205   11.01131296752818    2.56240858189973
H         3.74274498231043   11.41861179434619    0.84182675457969
H         6.02954089035700   11.36588752480884    0.57664734742929
H         4.16379907321432    9.07526988238022    2.05209592366763
H         4.85368862297718    6.82061335593061    2.62863911577877
H         7.24263581411184    6.27807351298550    2.95087360270551
H         8.93827085978764    8.04753598127926    2.62537978286373
H         8.26283144862324   10.30356661547903    2.02537402027534
H         5.66592507007212   15.77782899156476    3.17278125958516
H         4.96166788118600   18.09807820557154    3.42748668989962
H         3.40320710267341   19.11849711547931    1.80815393030340
H         2.55252758257315   17.77095299849073   -0.07947964003249
H         3.25287709579397   15.43497337628843   -0.33705864581098
H         7.15903239912082   10.39207043429972    4.63136761463236
H         7.49667742703101   11.64432408583690    6.98855394094349
H         5.42514545741525   11.03301387640450    8.54640679848911
H         3.77653355791475    9.44383239791235    7.16239811252084
H         4.85744996885879    9.03792430696519    4.74577504411609

