108
CSD_code = GALZUQ | q = 0 | S = 0 | Stoichiometry = C49H48FeNO6PSi2 | MND = 8
Fe       11.13661662522553    7.23905654977368    6.76119396598571
P        10.43654771049793    5.73205531556218    5.37007691734226
Si       13.14299584055285    8.99011427750985    9.21711746880274
Si        7.63063344830643    8.45869241562725    7.35924308237555
O         8.81324455570745    5.80916644802339    5.19606015141795
O        10.92921745240071    5.88189297565186    3.81816090204881
O        10.26926047544977   10.13735427269442    8.28041202096782
O        10.41965888393728    4.63537356801900    9.24656012303912
O        13.88937025013859    6.49387699465687    6.32137338155143
O        10.97237955527555    9.73972895251699    5.27310872089775
N        10.75535664191166    4.08460609359867    5.51190771817578
C         8.10424930952428    5.48146560871501    4.05149699368782
C         8.34331504008102    6.13863246981622    2.86144240842080
C         9.30984892639474    7.25422318708577    2.76972022346631
C        10.61103034174883    7.06723394518515    3.17662844897570
C        11.62304031110236    8.02642836623019    2.94186917076000
C        11.26429372525129    9.20647402958647    2.33638767193284
H        12.02206074419705    9.94416338011846    2.11791336224174
C         9.92549044691600    9.49533779223110    2.01199962283575
C         8.92409378565395    8.51357897761153    2.22935609434060
C         7.58074311209934    8.84355467947773    1.95450634690278
H         6.80810146686332    8.11881599777299    2.16129069546183
C         7.25138641342121   10.07309297581468    1.45568621184484
H         6.21793665198010   10.31678872367737    1.25892128336291
C         8.24540995280862   11.02969360376681    1.20256459425525
H         7.96696784398508   11.99284050587576    0.80141778329408
C         9.55320038335333   10.74717304658200    1.47826545523822
H        10.32450583177687   11.48388120005359    1.30761193531843
C        13.02108484382856    7.76269731326295    3.31586016340903
C        13.78581694318529    8.76121270775661    3.91574150702836
H        13.33456685622042    9.71533086207174    4.14148256547081
C        15.10858048361014    8.53052672077417    4.24293153479705
H        15.68785695094602    9.31047709158880    4.71501395397925
C        15.68960983500063    7.30334662847484    3.97169074034098
H        16.72167764333818    7.12254448780038    4.23246314305501
C        14.94069219231010    6.30892058392500    3.36620932882015
H        15.39141371470843    5.35188347231482    3.14631020836470
C        13.61673459682498    6.53471094568761    3.03902829998751
H        13.04280328449659    5.76265988828986    2.54878564690624
C         7.66478255894122    5.72001852748211    1.67865054098375
C         6.64337147266131    4.74196512319423    1.78033357790889
C         6.33633743110355    4.20476496116092    3.04342324850910
H         5.53234019139921    3.48723867243785    3.12152238587048
C         7.05682373659017    4.53061236731599    4.16554536877544
C         6.66813294533106    3.92804712084407    5.45552767418034
C         7.57669201611170    3.27724388272559    6.28227320033971
H         8.61341940711106    3.21456556092474    5.99671241183624
C         7.15643839244469    2.70112503062989    7.46910810694578
H         7.87450917778513    2.19934483085179    8.10133299789053
C         5.82714838335378    2.76925410541381    7.84743127964451
H         5.50291297456078    2.32194258855516    8.77529585961383
C         4.91409759939029    3.41329482816158    7.02867960838923
H         3.87506122724352    3.47223421057686    7.31781284373981
C         5.32911182876253    3.98302488931102    5.84038319025459
H         4.61777986868681    4.49689317937287    5.21017708168799
C         5.95788321964731    4.33118150397939    0.61808278068726
H         5.17340830344386    3.59469170510534    0.71579465852120
C         6.28752002678568    4.84291091610977   -0.60488483541340
H         5.76165172856180    4.52353467614507   -1.49222096043850
C         7.32925616522110    5.77523786989204   -0.71442655023054
H         7.60429214746194    6.15147372079849   -1.68848040291746
C         8.00142998768564    6.20430561118545    0.39669841399886
H         8.81189507040688    6.90893924448080    0.29373117696755
C        10.65077526288484    3.22554416585771    4.34440038673465
H        11.56733063204540    3.24000397944816    3.74559126721849
H         9.82062161873471    3.54647144635880    3.71636217215520
H        10.46740546512820    2.20004223299581    4.67369091483913
C        11.78680303395870    3.65799507609716    6.43276449597389
H        11.51248833703152    2.69405170314749    6.86664926290515
H        11.86888899293358    4.38955751381382    7.23056839267129
H        12.75935067532618    3.56040116036193    5.93942294926234
C        11.57327703970771    8.12404298615825    8.64867928211806
C        14.42967940176059    7.67391956259516    9.72136797776105
H        14.66528412583944    7.01725130596389    8.89077301052972
H        14.07775495854874    7.05791792828050   10.54259248067073
H        15.35354816367917    8.14496473955466   10.03845112395751
C        12.69758449728808   10.09464558396428   10.70617463776495
H        13.54043391391815   10.70662243532546   11.01175399210807
H        12.38456887112616    9.50835124072652   11.56548306297990
H        11.88023310936179   10.75676808116925   10.43978271225884
C        13.77138803159914   10.00984197582365    7.73836597613818
H        14.00533035899043    9.36324106141421    6.89703403842894
H        14.65853848980433   10.58638769962514    7.98034151746782
H        12.99908206025904   10.70112493448444    7.41705832193974
C        10.37295042068226    8.92171072610422    8.28603691920851
C         9.36862480400071    7.91570858131405    7.83622468984303
C         6.46135649276105    6.95468915403608    7.43162735600645
H         5.47233572374387    7.22288254797084    7.07583445825792
H         6.35148532892630    6.56944281450654    8.44020929452000
H         6.82652856316561    6.14668101434956    6.81008280380395
C         7.05765135594632    9.77044811381126    8.61921363591930
H         7.80860782637357   10.54771873326255    8.71274384873541
H         6.90124757274818    9.34136451140383    9.60490898929335
H         6.12720101394997   10.23622095450265    8.30893124865834
C         7.66646213706795    9.18424309962093    5.59872855537693
H         8.10815894535482    8.48174206385619    4.89867687442566
H         8.26120015161004   10.09145299975301    5.56940640917190
H         6.67162611150755    9.42963995712238    5.23985759352866
C         9.80362933626780    6.67375993497919    8.34786528513829
C        11.13800214804036    6.78644701705614    8.82403794206125
C        11.44714754135206    5.55582433804020    9.61611192075908
H        12.41031957545956    5.08426969137370    9.41006169459812
H        11.38994764625049    5.77928828470304   10.69469586271011
C         9.27289354013964    5.34545694672101    8.77377859866947
H         8.54521653356374    5.47741193587242    9.59083416426118
H         8.81041063638674    4.75199456638417    7.98472303582003
C        12.78737203579742    6.79505475354286    6.44874594145493
C        11.03776858728286    8.71674826467674    5.77784139705501

