93
CSD_code = GAMBOL | q = 0 | S = 0 | Stoichiometry = C49H29Cl8N5OZn | MND = 5
Zn       11.34432050011915    9.88339081373607    4.95959909392247
N        11.36302297703886   11.02564998275863    3.28942037731811
N        12.87569946490570    8.77838700167766    4.23070411359117
N        11.58062401672558    8.97898442391874    6.78034035875707
N        10.09065966053574   11.24295163569509    5.84804581273362
N         7.74833589636076    8.20155242429693    5.16139958298751
C         9.03425126167392    7.88484230188243    4.99930542919837
C         9.27656766244418    6.52711022365715    5.62560000321951
C         8.04461355677453    6.31168622845372    6.50368089237865
C         6.97536376915875    7.18372027292149    5.83744886710313
C         7.15228039906691    9.41367933710060    4.67577836142535
O         9.85474036036596    8.57290671662879    4.40162609456976
C        10.57428340342126   12.09381030831531    3.02615873577209
C        10.72859556369589   12.49664483265061    1.65163644521498
C        11.63020673814897   11.65247868875961    1.10215562728987
C        12.02966385645761   10.74254992661284    2.14530301996805
C        12.98080252264497    9.73829952248641    1.98683034460266
C        13.37987268849225    8.84365129791079    2.97677183328412
C        14.39695546136740    7.83852262707275    2.79917231931574
C        14.47602479894652    7.16060616053514    3.96606780699435
C        13.50543845106530    7.75322664657706    4.85078963879241
C        13.25249807260346    7.31082909930152    6.14658025883511
C        12.33613151198370    7.88150862909432    7.02710132903907
C        12.05964976183417    7.37742464729044    8.34749875446766
C        11.13939231216804    8.20677455791096    8.89129461709707
C        10.85590796778930    9.21153109228622    7.89991878439916
C         9.96965091586419   10.27044315772597    8.08777788709207
C         9.63916066810782   11.22137733626348    7.12537404359919
C         8.76836605145863   12.34389806535785    7.36139669350858
C         8.70436816418947   13.03356081394153    6.20003232247158
C         9.53629354660704   12.33017850252082    5.25854946168532
C         9.73824197892189   12.73176145274713    3.94008849242516
C         9.04834954865788   13.96253862180824    3.48355894396128
C         7.68817875456642   13.98193970402799    3.18634008770837
C         7.05057565262753   15.13545011699359    2.76014331571125
C         7.78088752918265   16.30308167929221    2.62559909938063
C         9.13452115800866   16.31990907295629    2.91299729926562
C         9.75522367517827   15.15624765629470    3.33689966803751
C        13.61764842282987    9.60528274405445    0.65457792955330
C        13.25099561978489    8.58017889604530   -0.21513071188061
C        13.83803755119723    8.44346355881014   -1.46241454725365
C        14.81261848966102    9.34423934961204   -1.85554238179607
C        15.19919301835201   10.37340102041064   -1.01469051722586
C        14.60070424612138   10.49603944053309    0.22881379022128
C        14.01352527854652    6.13275369002033    6.62682027808403
C        13.70009676373022    4.84599092363069    6.19517674244612
C        14.40619833111599    3.73868985309433    6.63488147683830
C        15.45066405891197    3.91243440985059    7.52638042123217
C        15.78704624049995    5.17718726001560    7.97647392841517
C        15.06895565434958    6.27326110677415    7.52628158801833
C         9.36999136707829   10.41938384402440    9.43487264101303
C         8.03378590597312   10.11926837119102    9.68241533440308
C         7.46714697115294   10.25826922477930   10.93781884667441
C         8.25238591759308   10.71142535087061   11.98350918874841
C         9.58520838405718   11.02051161337840   11.77582590234050
C        10.13281100421220   10.87332452490251   10.51148918562206
Cl        6.77810516959541   12.52281403678321    3.34323744275454
Cl       11.44173427734165   15.17367325580706    3.70579271308878
Cl       12.02798694394502    7.46879397689741    0.28531752711058
Cl       15.08036570942963   11.77140149594532    1.28996787252848
Cl       12.39121308251967    4.63891433324282    5.08717831378837
Cl       15.48542671709275    7.85614955661338    8.07591796713454
Cl        7.06228875785226    9.54861138624702    8.37909013715857
Cl       11.79183678061951   11.26995850918150   10.24769223790939
H        10.21474336077469    6.51377714624739    6.17571905399016
H         9.34572809209445    5.78784864613883    4.82456415137074
H         7.74522798010202    5.26795099309156    6.56591442587381
H         8.24208500595193    6.67738408974365    7.51170190038252
H         6.29236742867285    7.63933132045397    6.55691535101073
H         6.38380553347596    6.61611359038411    5.10734320267717
H         6.71465153209627    9.97937183914276    5.50060016429954
H         6.37352936665885    9.19452971441582    3.94165618196640
H         7.93617015593181   10.00637864586854    4.20766897995055
H        10.20673287986297   13.30887591499497    1.18232642905302
H        11.99607168735596   11.63708419691783    0.09328310596613
H        14.96781331253117    7.68684268762094    1.90295869953784
H        15.12550439204920    6.34344068713613    4.21673708591337
H        12.51119271896356    6.50781274219069    8.78582984919380
H        10.68775832791371    8.14968178128458    9.86365583000226
H         8.28882681454438   12.57234271469384    8.29441271837969
H         8.16039260130806   13.93531744163941    5.99316764707621
H         5.99609202131850   15.11195131760474    2.53648993301342
H         7.29150151776435   17.20555773748894    2.29437983474484
H         9.71081014628462   17.22537303577042    2.81263721626491
H        13.53030930674343    7.64040924106330   -2.11244719562357
H        15.27456897831920    9.24340093042014   -2.82524680023856
H        15.95863623967626   11.07769663969438   -1.31360086150051
H        14.13656236364802    2.75659532863542    6.28112048447763
H        16.00654436742202    3.05523695022821    7.87274433662329
H        16.60007219920508    5.32021236715670    8.66975468048083
H         6.42782114685106   10.01327202559254   11.08876187563932
H         7.82150205717725   10.82456135115108   12.96586157987147
H        10.20238752257435   11.37672161106008   12.58465101555055

