49
CSD_code = GAMCIG | q = 1 | S = 0 | Stoichiometry = C15H26N5NiO2(1+) | MND = 6
Ni        2.96501059949396    3.01506216795200    1.50009426183118
N         1.14156968361989    3.81462538573754    1.70269716209915
C         1.14859719988217    4.57260975723418    2.96515933025769
C         1.91066604930015    3.73910037023133    3.98224241983570
N         3.13681355792081    3.24033983027310    3.35682909862292
C         3.96292817929554    2.62636504255615    4.21838715732767
C         5.25624798681070    2.00383975374986    3.67224138962163
C         5.08090605324832    1.26059224339145    2.34520215309643
N         4.80552546785965    2.23438928314217    1.29152009042399
C         4.92587651234396    1.70420716103251   -0.07125867516518
C         4.14573030082966    2.63026539239784   -0.99682838626098
N         2.78668106284966    2.76620402546192   -0.45393941672449
C         1.95543275051126    3.65966875814266   -1.26204372309598
C         0.53694681581141    3.77737541281456   -0.70765812863672
C         0.48000496536538    4.53822561495670    0.61550073430170
O         3.75149984338856    2.60345191083881    5.42221976231246
C         3.91936692016743    0.29734294736704    2.48270474879107
N         2.74485939479573    0.69746955165593    1.99205250861907
C         1.69141854475281   -0.09561351956724    2.15689886607586
C         1.74883767920966   -1.31001788205648    2.81635542071857
C         2.97063008961353   -1.72646182919054    3.32292464059786
C         4.07559744650006   -0.91143068402936    3.14717700954581
O         4.20116645925382    5.11941938479085    1.30458445958433
H         0.60472031035542    2.95885278237281    1.88036657590914
H         0.12947989358755    4.78457138207160    3.31093082354461
H         1.66071365104876    5.52295592702979    2.79437052213417
H         2.17459032860966    4.33014935249888    4.86568642306337
H         1.29749628365316    2.89606743617278    4.32945794970250
H         5.61208834429906    1.32067216681356    4.44364161227725
H         6.00314674852033    2.79413955671890    3.56199921873038
H         5.99910945666506    0.69603672548394    2.11931478670469
H         5.44792418754682    3.02108385514076    1.39140055097385
H         4.48688941059536    0.70274190576806   -0.09344245460010
H         5.97304636322191    1.62925479231017   -0.38616274968526
H         4.61104861397113    3.61976890914917   -1.00428095767631
H         4.13210121485198    2.24040346939713   -2.02266739053466
H         2.35628477888106    1.83617581503686   -0.48669998381782
H         1.90445112125015    3.29203128775254   -2.29596286409496
H         2.42847652793100    4.64534786414332   -1.27990178442097
H        -0.07562675036449    4.30937849024625   -1.43566063586754
H         0.10715122506832    2.78053321833553   -0.58009436708611
H         0.97258696775960    5.50760720205886    0.49702701437394
H        -0.57011963031339    4.72693742982470    0.87588835755288
H         0.75746608917974    0.25659303355456    1.73624274094180
H         0.86264615143353   -1.91259274596215    2.93014058266766
H         3.05996053215478   -2.66625907948721    3.84480231911728
H         5.04313389832151   -1.20083360889500    3.52538903454651
H         4.42097407459177    5.26920724299870    2.23157289022228
H         3.69644664435635    5.88344551058154    1.01317890154376

