43
CSD_code = GAMDOO | q = 0 | S = 0 | Stoichiometry = C14H18N4NiO4S2 | MND = 6
Ni        3.02009280094502    4.21438016564116   13.00250941188223
N         1.64586982068808    4.27211239735177   10.38015795143266
N         4.41024668430158    4.14488489352337   15.61421874065783
N         4.30673451376715    4.24300649826776   11.72556590612417
N         1.73485146575309    4.18285274891067   14.28208654755567
C         1.87680298915102    5.57986932180415   10.18275139442769
H         2.08553808753003    6.15859995022468   11.07254761668775
C         1.89485546378706    6.11383159793148    8.91676155679413
H         2.10858672000036    7.16439708150508    8.79979718276306
C         1.66657540541911    5.31285081652554    7.80098564659741
C         1.75077233678280    5.85769981918572    6.41629573672553
H         2.78109225063890    5.78372114308367    6.06688665126890
H         1.46202483559077    6.90534810630155    6.39071905070649
H         1.12209875163177    5.29186230258896    5.73350999524020
C         1.40072939242637    3.96754002088094    8.04120628080727
H         1.21674233594821    3.29057428629926    7.22194765410776
C         1.39638651477481    3.47726272917919    9.32417467549654
H         1.21528117157704    2.43778865760035    9.55137764572489
C         4.66913185938031    4.92081226102763   16.68194131568088
H         4.83908024963065    5.96590365492541   16.47267480747469
C         4.68744243804382    4.40515290385376   17.95484354850290
H         4.87892796359545    5.06714655253341   18.78456237003401
C         4.43531202025792    3.05332006558425   18.17236486309869
C         4.37780932101567    2.47978314819935   19.54685737014514
H         4.67568894855769    1.43434196221012   19.54610646931231
H         3.35279938738703    2.53753249952116   19.91446676275282
H         5.01296551153101    3.03682580695586   20.23086155485944
C         4.19562457243228    2.27295418274457   17.04453836771227
H         3.99094512343920    1.21875306960061   17.14358859560292
C         4.19125218058046    2.83197578384417   15.78933417213933
H         3.97435506966471    2.26869031964704   14.89156589852390
C         4.58907247305545    4.20427919820615   10.58369929683348
C         1.46406875025615    4.19331002825343   15.42746827876360
O         1.64917638928737    3.74995707255916   11.56152890509822
O         4.38638425658658    4.68978600841399   14.44351289802887
O         3.11539855713249    1.75245793631987   12.98026650935932
H         3.59734879905746    1.67380865148231   12.14993601110200
H         2.17437201672484    1.74627652144268   12.76771055088429
O         2.90261334169615    6.67437851334214   13.00788492395482
H         3.83759846781428    6.68877731259617   13.24550722412607
H         2.39805580312872    6.74804926629672   13.82531499176579
S         5.02116302068878    4.14420435580553    9.05819335493633
S         1.04763193836765    4.21844038809714   16.95827131444992

