149
CSD_code = GAMDEE | q = 0 | S = 0 | Stoichiometry = C50H92Cl2P4Ru | MND = 6
Ru       12.05983660634625   10.73175028295448   -0.00021446103932
P        10.24433862113709    9.78123522348152    1.16173195749246
P        12.57077771229714   10.91204878419084    2.29110529404261
Cl       10.91147726750108   12.81260763294535    0.29383884640575
C        10.27921562699811    7.95745565034215    1.52543782792411
H        11.31323541423944    7.81545442201814    1.87650035413741
C         9.32772222617210    7.43674581523123    2.59608979192096
H         9.39257403537627    8.03520052529545    3.50799016555174
H         8.30077535468961    7.48194098932368    2.22924106798132
C         9.66827104402685    5.97958750080906    2.90509380625232
H        10.69040574352638    5.91704799166988    3.28624263087221
H         8.99835275678597    5.59919590214267    3.68012646480284
C         9.54396772918550    5.12874941671873    1.64420895887796
H         8.50604096269950    5.14369761106493    1.30122560956771
H         9.80499970005733    4.09228055295592    1.86831246862262
C        10.44889057744935    5.66775571236530    0.53993876345484
H        11.49365730201031    5.58404511175803    0.84612558054196
H        10.31915381532624    5.07433483717734   -0.36767947373894
C        10.13419233880247    7.13217261896656    0.24882022098291
H         9.11944695824671    7.21578354800612   -0.14587767784859
H        10.83277319220441    7.51396405217774   -0.49771467931508
C         8.48955306265118   10.41484897874173    1.09573977992751
H         8.65723419917208   11.46998423074738    0.82556879036726
C         7.67219156376158   10.39898583051960    2.38697074001532
H         8.22918333077749   10.83877331801000    3.21542904780910
H         7.40784814875196    9.37835609179403    2.66301044727501
C         6.38675386824231   11.19620145967210    2.16391578272702
H         5.79660789445826   11.20663089984463    3.08331194497947
H         6.64126162102772   12.22900563392166    1.91595195345532
C         5.56724691567233   10.58917417746654    1.02870042143184
H         4.66248411582017   11.17874657466820    0.86694652958776
H         5.26010508903813    9.57721361714453    1.30560756137033
C         6.38987463899985   10.53514752306977   -0.25533835003816
H         6.63206260658983   11.55073850730903   -0.57524983668749
H         5.81012338791313   10.06082938247883   -1.05059652248231
C         7.68425116274818    9.76098673768065   -0.02286635041366
H         7.44215963609416    8.73025072902708    0.24798381439257
H         8.27841704685970    9.74318693978874   -0.93876622240542
C        10.82269870153221   10.50731240703823    2.77035528802510
H        10.30137134417896   11.46321947151573    2.88870273549583
H        10.69764322347039    9.87977190461269    3.65580787302917
C        13.52625544063346    9.52990346127542    3.08783127649128
H        13.01956870303688    8.64090428218165    2.68081963510830
C        14.96413230197307    9.48482524879908    2.57577725501368
H        15.53274305490097   10.33394391207182    2.96078840403233
H        14.95041985121377    9.53806334720405    1.48588021685276
C        15.62911055650924    8.18363123365127    3.01454437512270
H        15.10614616505652    7.34499945071753    2.55030964502903
H        16.66506386071806    8.16246209054164    2.66924924271352
C        15.58703454441639    8.04059822376421    4.53328118613395
H        16.17797965288378    8.83991642850348    4.98831931045248
H        16.03104067938291    7.08824252003667    4.83091315323884
C        14.15084249603800    8.12541301867583    5.04306146492577
H        14.13643651200187    8.04825613521953    6.13304865555549
H        13.57292948531210    7.28979795614360    4.64084575341645
C        13.51043280019194    9.44339028304834    4.60918945459814
H        12.49162944038987    9.50775359989966    4.99888397728914
H        14.09083223867692   10.26603457386427    5.03074596036381
C        12.82224096255805   12.51794804611532    3.20828592521318
H        12.23300504932715   13.20970721972604    2.58473423408318
C        12.28508609639822   12.61712545331550    4.63556551901329
H        12.88425817951576   12.01100929741586    5.31487683879734
H        11.25238060942348   12.27099715315379    4.69677235586979
C        12.35616262931414   14.07624487570529    5.08653826215480
H        11.73453096698116   14.68783854921060    4.42890407062785
H        11.96238340236198   14.16693782702784    6.10163027938412
C        13.79472691609359   14.58348894611041    5.04126030456311
H        14.40197479172923   14.01148360373720    5.74773768902831
H        13.82894182327845   15.63154904034555    5.34584932101176
C        14.37253338095777   14.43025659878036    3.63727706636965
H        15.41508551762459   14.75639466058785    3.62507692238935
H        13.81419355385184   15.06186523398114    2.94315959112491
C        14.27651109385885   12.97743127944273    3.18003724676630
H        14.67120480595021   12.87800971985245    2.16683309804809
H        14.87702177009005   12.35090165347971    3.84439537739817
P        13.87557935431012   11.68284507881687   -1.16128395748572
P        11.54920412858215   10.55196638041815   -2.29114703308701
Cl       13.20885615895876    8.65169089175959   -0.29405164280032
C        13.84083641546185   13.50653991779322   -1.52540496277594
H        12.80685951327509   13.64850466088529   -1.87654946819260
C        14.79237101335177   14.02724083691745   -2.59606968575487
H        14.72754207025493   13.42877026498836   -3.50794632412315
H        15.81929374257613   13.98205859833431   -2.22918945306845
C        14.45192371660213   15.48442150554822   -2.90518702652635
H        13.42982504419841   15.54698330450247   -3.28640799386830
H        15.12191472122875   15.86478352878624   -3.68019372502186
C        14.57616964687310   16.33529500450278   -1.64433140350414
H        15.61405842137092   16.32028531532450   -1.30123985567590
H        14.31522600200576   17.37177550134740   -1.86849022145236
C        13.67111902035453   15.79635423770245   -0.54013755698848
H        12.62638751730614   15.88009131494178   -0.84643762589770
H        13.80077756738997   16.38982108940279    0.36746029977490
C        13.98574479950986   14.33195366114434   -0.24889138729452
H        15.00043655079572   14.24833789803419    0.14592866989343
H        13.28706891887290   13.95022418584744    0.49758524939442
C        15.63039071344704   11.04926654851042   -1.09561278617835
H        15.46265935842914    9.99417172946604   -0.82539214135368
C        16.44780204495775   11.06498568697704   -2.38684764989826
H        15.89081407051661   10.62515855505326   -3.21526803235848
H        16.71220445399134   12.08557551395447   -2.66295377955756
C        17.73323143033265   10.26773278610866   -2.16376344946134
H        18.32341114209787   10.25722469961788   -3.08315753467943
H        17.47868606800349    9.23495654615443   -1.91574976169264
C        18.55271819848436   10.87478960753232   -1.02855552768183
H        19.45744399845005   10.28518545552783   -0.86674969414579
H        18.85990827010708   11.88672355354643   -1.30550229400511
C        17.73005903689003   10.92891289127561    0.25546196664179
H        17.48781509427534    9.91334491298949    0.57541094418990
H        18.30981453367312   11.40322387577525    1.05072293686126
C        16.43574100887879   11.70314025289242    0.02292743909993
H        16.67788539087728   12.73385154188488   -0.24797539451833
H        15.84157105551184   11.72102596029334    0.93882401625828
C        13.29735541397734   10.95682286804185   -2.76995339112341
H        13.81862771491688   10.00088756366157   -2.88830032051335
H        13.42246427653446   11.58430309997664   -3.65542690517464
C        10.59375341249394   11.93407538246915   -3.08794330097938
H        11.10052199474161   12.82308556721472   -2.68108044543676
C         9.15592606465890   11.97931027513258   -2.57576751599288
H         8.58725154965532   11.13015445655201   -2.96059181695047
H         9.16972889975142   11.92624838186760   -1.48586152509488
C         8.49094604318040   13.28044972897223   -3.01468702578952
H         9.01400726432215   14.11915112828307   -2.55068877857297
H         7.45504023179182   13.30173790354241   -2.66925163525848
C         8.53283642192631   13.42317910938473   -4.53345289303123
H         7.94185382861995   12.62375520494335   -4.98825779735932
H         8.08877626900504   14.37546066781430   -4.83123504393287
C         9.96897603246040   13.33829509764876   -5.04336400951559
H         9.98327108567962   13.41525910952646   -6.13336952402013
H        10.54691934733858   14.17398963405529   -4.64135865514613
C        10.60945384538766   12.02040108966424   -4.60932336033718
H        11.62823296284653   11.95601337476608   -4.99907487270968
H        10.02904425503535   11.19768259322299   -5.03071807178298
C        11.29776627572466    8.94604202873030   -3.20823645891216
H        11.88682492588142    8.25425224486138   -2.58455872977822
C        11.83511634116087    8.84670206969735   -4.63542231046402
H        11.23615272677015    9.45290073994010   -5.31484033299624
H        12.86788422873014    9.19265582228996   -4.69646151635900
C        11.76389349003641    7.38757907110383   -5.08635062361027
H        12.38532913581630    6.77592542238985   -4.42858753244137
H        12.15782878478450    7.29677644291157   -6.10137774826364
C        10.32523967669464    6.88057156722645   -5.04125779238445
H         9.71817896883926    7.45267491550175   -5.74781752708974
H        10.29090139706898    5.83252083735735   -5.34583873557092
C         9.74726857041846    7.03389754905556   -3.63735310223066
H         8.70466796709871    6.70788538617618   -3.62526660218225
H        10.30543984054371    6.40223417472087   -2.94315003510193
C         9.84343566893752    8.48672477143619   -3.18015345534214
H         9.44862951947223    8.58622445197496   -2.16700743915294
H         9.24308949998904    9.11331345309980   -3.84459933600351

