85
CSD_code = GAMHIO | q = 0 | S = 0 | Stoichiometry = C37H44AgBrN2 | MND = 2
Ag        1.12570578146769    5.97669603938177    2.80038980375424
Br        1.77804842884875    4.85137939423739    0.78879327052424
C        -1.45983946228209    7.42677853067642    6.18031804691896
H        -2.50061405405555    7.11536449000784    6.05744311870718
H        -1.08453692652723    6.89502951979195    7.05422118174356
N        -0.77173743905961    6.99491157514671    4.95455410383007
C         0.52166117616588    6.91279499108778    4.67745574026254
N         1.46202958341688    7.23753162356569    5.55275090980833
C         1.34887520046415    7.68043019789168    6.94933457297948
H         2.34319940855731    7.54450063078263    7.38317797778340
H         0.68011389286838    7.02916542969896    7.51097896228041
C         0.97954618867168    9.13546489963361    7.08760916632009
C         1.97954250332964    9.96490198941777    7.53838725605257
H         2.94009311709218    9.53836315130806    7.79327969986469
C         1.80216025438767   11.34366690915612    7.68319217577145
H         2.61789827379236   11.95399993205593    8.03988720455102
C         0.59830944272921   11.89445783622177    7.36121771267176
H         0.43333706419712   12.95786550366251    7.45251093541552
C        -0.46954115490567   11.08589824859151    6.92119388140692
C        -1.71226134007088   11.69465355736228    6.65192140304225
H        -1.79345393886612   12.76609324867433    6.76079259637984
C        -2.78960899806510   10.94553012884998    6.28494113272179
H        -3.74850578282113   11.40275597707105    6.09371695127535
C        -2.64388118329474    9.56139634339344    6.15947074003149
H        -3.50960060775171    8.97338474291562    5.88712968685066
C        -1.44629450034705    8.92168163724929    6.37845673970191
C        -0.30350201951793    9.67399203923766    6.77799573913303
C        -1.68167458359651    6.52711974553613    3.94673656952082
C        -2.13748613383108    7.38567649800426    2.94119455676046
C        -3.09221418436991    6.90826119470708    2.05128343623311
H        -3.45421353543140    7.55194122946771    1.26510113380403
C        -3.58379678112096    5.62256608361983    2.15164157505987
H        -4.32874396134978    5.27264651515885    1.45311860001228
C        -3.10588130069147    4.77700065460650    3.13314733996437
H        -3.47639553647297    3.76533895073379    3.18926894369110
C        -2.15143485697879    5.21093917080509    4.04225227516925
C        -1.58261976219125    8.77741225041775    2.75407759793287
H        -0.90153283489090    9.00459355593246    3.58066042783624
C        -2.68179102970911    9.84090313252960    2.73641186685943
H        -2.23438284032966   10.83214428573587    2.70838624233883
H        -3.30296916344624    9.77190069990271    3.62495890601133
H        -3.31797351058637    9.73080936622945    1.86216431103147
C        -0.79104585350601    8.82215265799490    1.44467417337373
H        -0.04002345968991    8.02611659394315    1.42641824002841
H        -0.28977937103363    9.78045486406609    1.33542430978352
H        -1.44938605653185    8.67715200908545    0.59214784133478
C        -1.61626205697092    4.24838797991314    5.07744172729277
H        -0.86673885992187    4.75979244896166    5.68925713215104
C        -2.72551593995583    3.74996002774079    6.00596913491260
H        -3.21526196109523    4.58340943909533    6.50670148716815
H        -2.30908705028688    3.08985911836879    6.76403077966361
H        -3.47802667374092    3.19730654246757    5.44992648826567
C        -0.91941833940959    3.07858178598755    4.37929428677854
H        -0.15927456550540    3.45321028929219    3.68906909173427
H        -1.62803602073103    2.48437027087349    3.80933189061056
H        -0.43853223852376    2.43338867286833    5.11098923459737
C         2.82544311420795    7.07948145527874    5.13137612398142
C         3.49095711153713    5.89186363841398    5.46029510301714
C         4.83551546271908    5.77220449309510    5.13758057349697
H         5.36414481321496    4.86347363959079    5.37966685252759
C         5.50570813786567    6.79957874284325    4.50345929512844
H         6.55210788402763    6.69270665185855    4.26061584458808
C         4.83162407078433    7.95469163159344    4.16259945212269
H         5.35875660466746    8.74147729228504    3.64633724663689
C         3.48644225448593    8.11897334713850    4.46946536084700
C         2.77663842475912    4.73331367753761    6.11756428569984
H         1.72804340522460    5.00282124041181    6.27762352498479
C         2.80418619932591    3.51758332369019    5.18872562213867
H         2.39869952005513    3.78450065284791    4.20883377353103
H         2.20680133649319    2.70947249252767    5.60432059215876
H         3.81886497745613    3.15706597978329    5.04546700539951
C         3.39270864621211    4.39544197004551    7.47688093215215
H         3.36939641876584    5.25920384598485    8.13915560462853
H         4.42655131394338    4.07936196244063    7.36637938666096
H         2.83770399794591    3.58653289719375    7.94730931479165
C         2.77268819737321    9.37357233426566    4.02696392633375
H         1.75452821014583    9.36645372217824    4.42921948879249
C         3.47025462451789   10.64045232669454    4.52447725525303
H         3.61363714828719   10.60510601104261    5.60103741441557
H         2.86337602320871   11.51210409984352    4.28887568761298
H         4.44063324349399   10.76439335237221    4.05109371565563
C         2.68979538138431    9.38302256118596    2.49883411612945
H         2.24349561813954    8.45219307150820    2.13770834873761
H         3.68067517246374    9.46955533416655    2.06060795574996
H         2.08537824076691   10.21931365106227    2.15652588711196

