63
CSD_code = GAMKOW | q = 0 | S = 0 | Stoichiometry = C20H28Cl4N8O2Pt | MND = 6
Pt        0.00072039762185   -0.00068987783219    0.00000291541329
Cl        1.43949349222296   -1.59443125393578    1.00347396131393
Cl       -1.28778798759335    0.03418308691287    1.97347313952040
O         3.00379579427242    0.99407236683786    0.34672963465841
N         0.94755691835461    1.56629131225578    0.88279657133785
H         0.32985007305748    2.20452315309393    1.37377382443797
N         2.67955221757905    2.39283796277079    2.19252656508916
N         4.25719358365166    0.51866072019210    0.86090521167138
N         4.18001977403975   -1.01108502857636   -0.91186096528449
H         3.25727431786021   -0.69856058655037   -1.20616055660521
H         4.46913588967617   -1.92501289798002   -1.21212663880446
C         2.21780129773653    1.65722323044141    1.17102025273139
C         1.76515565210218    2.89417812864841    3.19605911796646
H         1.31495730461627    3.84629858324913    2.89775823876938
H         2.32415296174247    3.04895180912729    4.11777257097732
H         0.97800077222270    2.16570922968548    3.39071088705243
C         4.03380854846186    2.89208392125995    2.28225666470687
H         4.62224725191605    2.53916106009045    1.44207924923453
H         4.50107089844685    2.53687496306656    3.20223219658845
H         4.01525787416565    3.98491746862043    2.28739590698668
C         4.71018398623256   -0.49200003566575    0.20419042982298
C         5.97186840548780   -1.05449543919590    0.72397838149019
C         6.22736860131615   -1.03509577317352    2.09184758097844
H         5.49053070728012   -0.60191174175691    2.74825723663121
C         7.39831173213542   -1.57534727770286    2.58891002798851
H         7.58804754587711   -1.56343817758777    3.65194354520446
C         8.32652988320666   -2.13690553966794    1.72697815788171
H         9.24021286350600   -2.56138684198650    2.11611280927326
C         8.08153111847839   -2.15127069781131    0.36428946572902
H         8.80697278346435   -2.58084584482475   -0.31063534163441
C         6.90967347702714   -1.61461877762964   -0.13803490806680
H         6.73502787850724   -1.61028177229927   -1.20404666187229
Cl       -1.43881463981998    1.59412899410064   -1.00199241314418
Cl        1.28823099553117   -0.03209363505555   -1.97427227575629
O        -3.00388853870062   -0.99413619339470   -0.34675632088004
N        -0.94770328420496   -1.56662443588351   -0.88278779484580
H        -0.33011990020593   -2.20489377027980   -1.37385123980427
N        -2.67967148711818   -2.39281390560380   -2.19263613481623
N        -4.25723458042201   -0.51862434923279   -0.86094226641930
N        -4.18007616587760    1.01104105610555    0.91187781938446
H        -3.25735473406112    0.69848848748556    1.20620227463077
H        -4.46917833872034    1.92496074546335    1.21215652635474
C        -2.21793204485087   -1.65727429982759   -1.17108987413310
C        -1.76521010519654   -2.89416745946303   -3.19610999605806
H        -1.31502348377629   -3.84627465943567   -2.89775648826875
H        -2.32415797003058   -3.04896204252911   -4.11785002428878
H        -0.97802888271355   -2.16571072129043   -3.39073855796581
C        -4.03389834312158   -2.89209043199057   -2.28234415472767
H        -4.62231392709317   -2.53912809006915   -1.44217184253219
H        -4.50115429963292   -2.53692987614774   -3.20233733255629
H        -4.01527989413393   -3.98492420525031   -2.28740575569196
C        -4.71021626057464    0.49201148465658   -0.20419907783946
C        -5.97190912329721    1.05448477777684   -0.72398006770293
C        -6.22741179713662    1.03508650616199   -2.09184296311975
H        -5.49057939375395    0.60190006372192   -2.74824850414097
C        -7.39834870018823    1.57534606290292   -2.58890662152121
H        -7.58807915060977    1.56345302788120   -3.65193550615586
C        -8.32655793154807    2.13690809067875   -1.72697654890227
H        -9.24023300718235    2.56140854607568   -2.11610534094075
C        -8.08156564463215    2.15124541488445   -0.36429563352402
H        -8.80700507603571    2.58081458998773    0.31062528728570
C        -6.90972029310130    1.61457331458513    0.13802854823873
H        -6.73508001246268    1.61020748090983    1.20403280865350

