38
CSD_code = GAMLUD | q = 0 | S = 0 | Stoichiometry = C17H12N4OS3Zn | MND = 5
Zn        4.10938053116456    4.99262728430109    0.52257712000823
S         6.29733463516850    4.10378106503502    2.75235577609307
S         7.19213149579453    3.93447628825272   -0.02888534102235
S         6.94681179713925    6.52145491889150    1.23859455006820
N         2.40806527191640    5.21392063709821   -0.20679419435368
N         3.66842520387892    3.95865184406755    2.26614370347356
N         4.70049385906203    3.46058258866654   -0.86799162585687
N         4.34140338389165    7.07543843896392    1.04457947447920
O         0.36969904101104    5.69371762884150   -1.27364252466858
C         1.39480217803105    5.46767244633124   -0.75346760339722
C         6.17097854468362    4.89481144107187    1.11247059314263
C         4.65094251521178    3.65772973637087    3.10950493962713
C         4.41930571641110    2.97478955965866    4.31051793542432
H         5.25401642505373    2.75892855162044    4.95828066791448
C         3.13386309768727    2.60067666305412    4.62154019798706
H         2.92374924499881    2.07181320048637    5.53898572533126
C         2.10707993768025    2.91441178240776    3.73093353378410
H         1.08671652506277    2.63639859801004    3.93735097104790
C         2.42441210900457    3.59194269443572    2.57432532959047
H         1.67429077287514    3.86646963434491    1.84684793618789
C         5.98545623078530    3.16765700493720   -1.03085876952568
C         6.43056574972045    2.24384300766333   -1.98320267198902
H         7.48819526108905    2.05371146469565   -2.07299516617195
C         5.49965667615697    1.60889498752344   -2.77124945194814
H         5.80927908456119    0.89075370557757   -3.51554479908984
C         4.15024188834661    1.90741577883643   -2.58850064581424
H         3.38836082873806    1.42822959276064   -3.18094679838116
C         3.80444792854988    2.83789846333348   -1.63243239668501
H         2.77712955466813    3.11953017742253   -1.45662046795375
C         5.55830775233019    7.57919144407643    1.21654299983982
C         5.78689804379934    8.94763817567960    1.39951408605548
H         6.79940729777428    9.29631018875664    1.52631048910927
C         4.70835841443756    9.80043958669454    1.41128107458603
H         4.84967394825080   10.86205255420451    1.54761378837385
C         3.43048569667062    9.26774161690563    1.24788535144124
H         2.55785108682494    9.89977165409046    1.25790259212642
C         3.30114592057995    7.90782773000628    1.06518806541571
H         2.33763635098505    7.44339786492374    0.91908555575294

