38
CSD_code = GAMMEO | q = 0 | S = 0 | Stoichiometry = C16H12N6S3Zn | MND = 5
Zn       -2.77686846538595   -7.32596080593207  -13.25095383705924
S        -1.37034303336052   -6.54714533930181  -16.07580913085609
S        -4.29643503555958   -6.32432766625348  -15.88662786013241
S        -2.99705722567608   -8.94781956721008  -16.10871515713280
N        -1.54030834933633   -5.55369012122505  -13.60728504926347
N        -4.62635845846961   -6.42460578697686  -13.22625626963439
N        -3.32687077565732   -9.38842807622833  -13.49369550811461
N        -2.24035714804629   -7.51482192353674  -11.47969526939325
N        -1.33885788178732   -7.27418397641005  -10.76876482650645
N        -0.51810248817785   -7.06015725128275  -10.02076387801678
C        -2.84804696933184   -7.31062715554622  -15.36909296742645
C        -0.87117826574025   -5.51755605327584  -14.75542454265466
C         0.21007138172367   -4.65664705476091  -14.96852301444157
H         0.72148052477384   -4.68237213074599  -15.91751297816226
C         0.58393741049075   -3.80604077713388  -13.95421247899658
H         1.41847766092208   -3.13340658393474  -14.08263496585393
C        -0.13897976515190   -3.82110945197273  -12.76248840035258
H         0.11153270135679   -3.16157283176247  -11.94840395697920
C        -1.18310240805582   -4.71141109578724  -12.63862962795332
H        -1.76914489447432   -4.76748948702010  -11.73290206293229
C        -5.11736647217220   -5.99397191168116  -14.38481732431219
C        -6.31123644484818   -5.26385487470892  -14.45923723723434
H        -6.66448303310592   -4.93702517132749  -15.42438534881077
C        -6.99278539901859   -4.98780469986108  -13.29835683518562
H        -7.91452919547803   -4.42635524208966  -13.32447393325530
C        -6.47440498610909   -5.44542207438121  -12.08634184436981
H        -6.98067603471650   -5.25075989337130  -11.15526108103716
C        -5.29381790838749   -6.15412786659810  -12.10450572282000
H        -4.83934624597095   -6.53253255650419  -11.19995208317521
C        -3.32719099132759   -9.93480653502321  -14.70342573073651
C        -3.59037036713438  -11.29317040138580  -14.91137559026904
H        -3.57237377672500  -11.68287020366960  -15.91663780688776
C        -3.86213016647632  -12.08573100536901  -13.82057162532166
H        -4.06802602716912  -13.13811120656038  -13.94604610535951
C        -3.86694236483534  -11.50718364375325  -12.55211634064112
H        -4.07628783565638  -12.09419457881989  -11.67301960483021
C        -3.59118020298630  -10.16132720684143  -12.44203284546553
H        -3.56424106293811   -9.65777779175778  -11.48715115843173

