64
CSD_code = GAMNEP | q = 1 | S = 0 | Stoichiometry = C27H31IrN5(1+) | MND = 6
Ir       11.59333610010502    9.50155015237034    2.29760205702756
N        13.81253882938777    8.12829371033430    3.80317135144630
N        13.51199945470997   10.13524968927408    4.53213299101999
N        10.56623650907068    7.67088510822609    2.55842586534848
N        10.15487521893746   10.41494990215469    3.55243961080394
N        10.50022279728485    9.90146373763575    0.73570601753667
C        12.98304239755898    9.19057483959119    3.72572973528732
C        14.85539054220439    8.40947116196474    4.64646379917606
H        15.65588225722783    7.72470872204353    4.82815222110439
C        14.66674376428804    9.66915194910560    5.10400239399295
H        15.27561249974358   10.26410205730843    5.75053394587632
C        13.65229412851038    6.96377623331114    3.01733985562695
C        13.80323447020395    5.68939397795763    3.55817500694385
C        13.62188781504145    4.59475283635085    2.72008483087069
H        13.74937137973680    3.60211569367495    3.12749651805932
C        13.27870446443312    4.74453515069933    1.38427011851640
C        13.09366376272123    6.02640728896506    0.88408965011863
H        12.81128778525349    6.15483100121072   -0.15048779412484
C        13.27610484479048    7.15240146624346    1.67586357319629
C        14.12060455758449    5.45414030987273    5.00533097579669
H        15.19785229815980    5.39437103752161    5.15914894614679
H        13.69545916012821    4.50673256551003    5.32876677274734
H        13.72489507919656    6.24599971665736    5.63761566877450
C        13.11251457977809    3.55014139808637    0.49698210763805
H        12.32262917008944    3.71279001541527   -0.23282498500124
H        12.88744491506537    2.65715551465621    1.07491017243863
H        14.03710746605761    3.36939749406051   -0.05066380205991
C        13.06524320522381    8.52181012012628    1.13857333350289
H        12.77435593557095    8.45442060244055    0.08733923863005
H        14.01615779562167    9.06133106731103    1.17413278701010
C        12.98095882865796   11.44092531608688    4.64420760663580
C        12.84496440784027   12.07213282794856    5.87842461365548
C        12.30512204473078   13.35295661103709    5.90455644708079
H        12.20679732758889   13.85630997080257    6.85566284271187
C        11.88712613970244   13.99526447194523    4.74770943043902
C        11.99698685826361   13.32479463583998    3.53751544635656
H        11.66103263759278   13.80807636110157    2.63186078883111
C        12.54161000515905   12.04976887283508    3.45584765986000
C        13.22610643590682   11.41501144565866    7.17206697303185
H        14.26146665221296   11.63884997936573    7.42812399071777
H        13.10816374891776   10.33460396453341    7.12408784410349
H        12.60466909349782   11.79638351157885    7.97913418579902
C        11.33165844361025   15.38424330442052    4.80466189377475
H        10.85507782240869   15.57927654519098    5.76250636520493
H        10.61258526165180   15.55104679084051    4.00621925752232
H        12.13855877491026   16.10645041896464    4.68191372427954
C        12.64378025444647   11.33104768697965    2.15913416339680
H        13.70109640943213   11.16082463016262    1.93621833209160
H        12.24711457577527   11.96688740695952    1.36375424598235
C        10.26733787256468    6.56878449427358    2.66254289237029
C         9.90282908685904    5.19673896426108    2.79376933635466
H         9.29139976916708    4.89372904173575    1.94455423824658
H         9.34003310065400    5.04669767767370    3.71446358564321
H        10.81053167519511    4.59323796138837    2.81788926662349
C         9.59822598459363   11.09729779997465    4.28684822664176
C         8.90997910245777   11.94435490104135    5.20411788063297
H         8.23511380355573   11.35534024873212    5.82441778247134
H         8.33696596874043   12.69115041695397    4.65555327946882
H         9.64250690125772   12.44812522273281    5.83518196823820
C         9.95935510586573   10.17022026618547   -0.24287300256150
C         9.28515253970597   10.50229445151022   -1.45735123234052
H         8.48623679446992   11.21591316001195   -1.25617678581300
H         8.85828277929922    9.60341033659464   -1.90208524588170
H         9.99248060962308   10.94594578461640   -2.15826096503355

