31
CSD_code = GAMVIZ | q = 0 | S = 0 | Stoichiometry = C10H8CdCl2N8S2 | MND = 6
Cd        3.15710328306190    5.34903418827327    3.56626140230081
Cl        2.14813896383444    3.60008859072186    4.89764210110089
N         1.37508776885333    6.44507169745234   -0.46132545041662
C         0.89324104434381    7.68482541026644   -0.70989684037012
N         0.52794312728061    8.53682874207657    0.18813529617776
C         0.68401761507682    8.09391573461333    1.45606452876944
C         1.15707328916261    6.82823058352517    1.81860502742842
C         1.56440342461968    5.92205123573357    0.80433975027448
S         2.19517449777448    4.41098842031320    0.99250332243261
N         1.19473730664298    6.73269277630973    3.17770026062914
C         0.77667727100423    7.88466789977600    3.62381238490414
N         0.44165319533886    8.74473651786735    2.62234021896634
H         1.68350124054151    5.85245140862690   -1.22422875999429
H         0.80682219785488    7.97763933605908   -1.74591450475291
H         0.69664583965971    8.13454985614264    4.66474173437942
H         0.13237728289629    9.69959592658057    2.71205817937218
Cl        4.17086685265365    7.09517112461678    2.23448360256244
S         4.11679531316470    6.28815956005602    6.14086720214554
N         5.12280822486160    3.97037066898576    3.95375740763410
C         4.75219459256511    4.77891592020774    6.32767655605420
C         5.16187276315674    3.87447241471903    5.31278623776999
C         5.54410802823676    2.81988908023306    3.50687548991172
N         4.94387925035323    4.25570159837721    7.59301069578274
C         5.63906717329395    2.61011304697737    5.67449732429388
N         5.88266620625228    1.96050921363992    4.50777459229367
H         5.62411263323751    2.57068451346660    2.46577731628455
C         5.42909185988005    3.01713957024081    7.84069457184934
H         4.63388839224683    4.84708615481037    8.35623873096202
N         5.79676658373788    2.16677753927870    6.94204182950715
H         6.19437744407384    1.00652270613459    4.41739733859080
H         5.51620733433407    2.72381856392400    8.87648245314828

