110
CSD_code = GAMZEB | q = 0 | S = 0 | Stoichiometry = C52H52BP3RuSi | MND = 6
Ru        2.64111286466901    2.39792774663413    6.48963632613053
P         4.87519421699903    1.80458111597962    6.07901307556556
P         1.89598592568812    1.08167841141596    4.70134275846223
P         3.32111824470058    4.02794193345163    4.90465473046939
Si        1.06263995238951    1.86917769753350    8.14682210822237
B         4.30560177216364    1.89119602997246    3.20966058643980
C         4.93707156298006    1.55509026180692    1.75670125739829
C         4.54974760360061    2.28848654674416    0.63402368205789
H         3.84721144621984    3.10379510002845    0.75080517842527
C         5.02403807584412    2.00527906516979   -0.63334831106233
H         4.70117257007320    2.60119584995712   -1.47709151778567
C         5.90851808489581    0.95808317452229   -0.82593142260029
H         6.28452679675644    0.73204223563940   -1.81422194056172
C         6.29764002976372    0.20012018912188    0.26335153819085
H         6.98018875666136   -0.62898064880975    0.12813127906290
C         5.81472436269857    0.49683632286026    1.52646490475332
H         6.13294560856866   -0.12529052444520    2.35258972528756
C         2.11914193363519   -0.72726806543555    4.92151375980064
C         2.88904862856313   -1.53923155524233    4.09747941879246
H         3.41021540309240   -1.12286527149606    3.24781003128849
C         2.99989325776329   -2.89454388487566    4.36181759704726
H         3.60887600507293   -3.51392498254593    3.71907750786594
C         2.33738193073752   -3.45607573553310    5.43882882258155
H         2.43082837778536   -4.51265140581464    5.64274608838817
C         1.54682380226613   -2.65790352743302    6.25129533972144
H         1.01652655801162   -3.09229327722098    7.08680000073248
C         1.44017787272111   -1.30597835344140    5.99210886733072
H         0.82369529657929   -0.67532003164004    6.62377362287210
C         0.11591702269139    0.91425124624059    4.25298001976868
C        -0.23339832882669    0.10420477834439    3.17570568903598
H         0.53679697801554   -0.40470942572189    2.61342275037642
C        -1.55879681271505   -0.06188976883034    2.82390076371123
H        -1.81585237630226   -0.69109400508283    1.98390564714892
C        -2.55787713790537    0.57093150434297    3.54708248372608
H        -3.59358184986820    0.43796539872827    3.27073604942309
C        -2.22145396986580    1.36878936863265    4.62615458242589
H        -2.99010556597713    1.86250814496073    5.20364011008729
C        -0.89293007213678    1.53769881497310    4.97524376165047
H        -0.64377168313806    2.16401737495025    5.82073143302385
C         2.01498648296567    4.91053569913227    3.96134335722000
C         2.34625494313042    6.09382377239147    3.30436913629867
H         3.34399363765102    6.50083952411576    3.39622881447406
C         1.40585086647530    6.75593050071613    2.53894320504682
H         1.67422442269765    7.67535084518160    2.03859982525667
C         0.12418235488011    6.24408550884715    2.40852411659002
H        -0.60754213718235    6.76277589470679    1.80667226885584
C        -0.21009504336486    5.06517843965738    3.05054261775472
H        -1.20317456436664    4.65039166270182    2.95210842449231
C         0.73075575842519    4.40715043847768    3.82292682506244
H         0.45993689436136    3.48679626895827    4.32011343486356
C         4.08723680553826    5.50925258894749    5.66096364257636
C         5.23840985616473    6.12270374173335    5.18289823137409
H         5.76248024732427    5.72225398111629    4.32720157636715
C         5.73375741761261    7.25592728656684    5.80382666132012
H         6.63521327887509    7.71860812136784    5.42822908950307
C         5.08054183178831    7.79586751121406    6.89737810718566
H         5.47380840999418    8.67754028270575    7.38215098360585
C         3.91687211988840    7.20539237626554    7.36345864647588
H         3.39579393959612    7.63010670409016    8.20952242104228
C         3.42306834393372    6.07267283498049    6.74670335673940
H         2.51774973431027    5.60143827130486    7.11014931486511
C         5.62804604728646    0.49762573601810    7.12721230606284
C         6.84029945369865    0.64731083673835    7.79171835615510
H         7.37564502207758    1.58439916190010    7.75036967616528
C         7.37377450007686   -0.40276352924720    8.52006746665207
H         8.31403242569397   -0.26792408918089    9.03526234648847
C         6.71452747077747   -1.61710895861468    8.58867219929176
H         7.13570958634086   -2.43331127006419    9.15697862472603
C         5.51007890218850   -1.77868239306446    7.92293127669863
H         4.98580917070329   -2.72275272962551    7.96393755035912
C         4.97389748851420   -0.73019028328997    7.20243367366008
H         4.02798757079663   -0.86795827548201    6.69456401185854
C         6.14253919905624    3.10663252054636    6.32230073013723
C         7.21843885749258    3.30287013559414    5.46243265968760
H         7.32246250461676    2.71149856481345    4.56417070108203
C         8.17294835558934    4.26460881631796    5.74587338190829
H         8.99824842007659    4.41238401102734    5.06378650156613
C         8.07812572888818    5.02972123127325    6.89545152475494
H         8.82492925207884    5.77978189618818    7.11077207188653
C         7.02662953583191    4.82142384961048    7.77221834211292
H         6.95069161335079    5.40490654586860    8.67809844440407
C         6.07038650864889    3.86566734610954    7.48792663066559
H         5.25111515645948    3.69913170812050    8.17521836212652
C        -0.73572150975748    2.51215295512532    8.34995213376237
C        -1.78208400046974    1.65164331209638    8.68106558772039
H        -1.57747063934980    0.60648993303309    8.86145534696961
C        -3.08315616406983    2.11106212296586    8.77097532095654
H        -3.88023617240268    1.42624826674624    9.02290396430046
C        -3.36586999658187    3.44678510936000    8.53798220863843
H        -4.38183260130712    3.80686902636746    8.60940888422579
C        -2.33996835290255    4.31748921479889    8.20907217151788
H        -2.55433379745932    5.36020190909309    8.02414619612634
C        -1.04231250947773    3.85125012932544    8.10940409440017
H        -0.24873119293621    4.53388017325219    7.83744618475811
C         5.10308970375740    1.09525301494612    4.42738588474630
H         6.18444212172905    1.03473959512285    4.26034631263470
H         4.75410421523550    0.06196205005000    4.53850439540238
C         2.69319544061221    1.47009759263011    3.12001414033518
H         2.51380417618537    0.64010000374380    2.42797251015708
H         2.13224235895825    2.32752357307417    2.72357406824127
C         4.40914894396972    3.50790189381912    3.54005088964559
H         4.14601772900371    4.13536604351082    2.68279705030491
H         5.43453420732098    3.75120235670071    3.82575493796433
C         1.24739622791854    0.71828535541875    9.68753075178653
H         0.79062531352557    1.15433925690962   10.57305439967848
H         2.29478260150944    0.52289822207299    9.90487674781355
H         0.77110414464918   -0.24390671418677    9.51222645645147
H         3.00548969178919    1.06921100774642    7.17058054802610
H         1.49139319328978    3.41359326447635    6.31887458728187
H         3.25002535167954    3.28699039608657    7.60693502500320

