75
CSD_code = GAMZUQ | q = 0 | S = 0 | Stoichiometry = C32H30Cl10FeP2 | MND = 4
Fe        5.33589700943410    0.00007304948899   -0.00007250291634
Cl        4.10119059950022    1.82424639673713   -0.54505453633375
Cl        1.68064618533387    3.49918225331029    0.98336921564299
Cl        0.78504256563472    2.37831885753961    3.77479039038632
Cl        2.13034331098319   -0.16935468493613    4.92488352582737
Cl        4.38783077140276   -1.61176918975604    3.31865487894323
P         6.68414690913646    1.33690571492652    1.09754925179525
C         4.03581182122670    0.24871827883861    1.42187058469813
C         3.38213013577528    1.39106657219223    0.96142955330696
C         2.39014382267458    2.07409235449613    1.62723494138381
C         1.99927188554960    1.56665838090301    2.87012094263080
C         2.61066261543104    0.42281820419784    3.38212315647730
C         3.61456644559167   -0.21836656392634    2.65870973544977
C         5.82048330766867    2.60449122157280    2.09123397693864
C         5.47450298678023    3.83328294699303    1.53592077246885
H         5.78736199913189    4.08195556044737    0.53228200530565
C         4.71668399556826    4.73940841582675    2.25587132744570
H         4.45160039137500    5.68738629559480    1.81142652000743
C         4.28850842651634    4.42956309470549    3.53526687290240
H         3.68855771001945    5.13371726087418    4.09167133101906
C         4.62544944654554    3.20853304546526    4.09508154990392
H         4.29147897731367    2.95908723835471    5.09133711268083
C         5.38030790717867    2.30018559849804    3.37737651386347
H         5.62033208909866    1.34373758181619    3.81657716147033
C         7.84533391551700    2.40208723597491    0.12017339942425
H         8.08308771795709    3.29202738300667    0.71073334739527
H         7.28540941707221    2.71520406307059   -0.76589908016694
C         9.12811717373689    1.70486471759583   -0.32013499623013
H         8.91582860505763    0.75078561898807   -0.79562697275208
H         9.79507992566755    1.52983559864190    0.51997279588281
H         9.65346892864429    2.33023283627661   -1.03955369764134
C         7.79722406687849    0.55548327259063    2.34587617865715
H         7.16957610351274   -0.09819397504936    2.95861749553600
H         8.47847291816791   -0.09257926575405    1.78581016487341
C         8.58529386380052    1.52296441831138    3.22179519148965
H         7.92146758720165    2.17106332115713    3.78873826027006
H         9.19849536891586    0.96240961735821    3.92520047312756
H         9.24283195681419    2.15145554833033    2.62687081752155
Cl        6.57083553668599   -1.82379828867677    0.54521139673315
Cl        8.99183445842699   -3.49850744235006   -0.98272615203858
Cl        9.88705427883390   -2.37826839009794   -3.77452367800579
Cl        8.54094302199159    0.16861731316135   -4.92543118794176
Cl        6.28334596608363    1.61111192158112   -3.31944438456381
P         3.98771932627934   -1.33652807609116   -1.09801555549289
C         6.63591793764123   -0.24870359568500   -1.42207831043953
C         7.28982999166233   -1.39080918894399   -0.96135533367300
C         8.28195582273494   -2.07378918874289   -1.62699776633307
C         8.67263491784603   -1.56665190282534   -2.87006731305765
C         8.06090146258751   -0.42315378751984   -3.38242549862391
C         7.05692097377252    0.21804851309586   -2.65913174460177
C         4.85142017209836   -2.60533085757578   -2.09011267558922
C         5.19646801338597   -3.83372862397906   -1.53333440620944
H         4.88285274603613   -4.08120373710280   -0.52963462586997
C         5.95433203616675   -4.74094186539859   -2.25185816538490
H         6.21873609774335   -5.68856464883343   -1.80625167745808
C         6.38347875232203   -4.43259893431134   -3.53129421298813
H         6.98344472817657   -5.13760772543210   -4.08660050083300
C         6.04744152822917   -3.21199563131738   -4.09257589791947
H         6.38210573341546   -2.96375324016896   -5.08890023021956
C         5.29253996941057   -2.30255573974920   -3.37628905478909
H         5.05324666616988   -1.34646533150274   -3.81665781183816
C         2.82473408888097   -2.40042137476686   -0.12136762629163
H         2.58669716580134   -3.29028705855769   -0.71193618555011
H         3.38361889871810   -2.71383378547945    0.76525382239523
C         1.54222122301135   -1.70193110537499    0.31770183547104
H         1.75500024051832   -0.74813083458132    0.79353890664152
H         0.87629897796730   -1.52611922242413   -0.52306811544111
H         1.01549323282815   -2.32685189664692    1.03650101567872
C         2.87652349901850   -0.55483620572980   -2.34783997270221
H         3.50537086990149    0.09791720579345   -2.96033375843144
H         2.19535273270750    0.09419199322820   -1.78880219943143
C         2.08834925720145   -1.52206699546205   -3.22395004533311
H         2.75204169946814   -2.17157247955153   -3.78944327350763
H         1.47681780935664   -0.96132719030789   -3.92866233510143
H         1.42918130300515   -2.14913087568457   -2.62932493950857

