120
CSD_code = GAMZOL | q = 0 | S = 0 | Stoichiometry = C54H58BClP4RuSi | MND = 6
Ru       17.61263543253023   15.92159770325246   19.60831909864530
P        16.09187337683929   14.97396395152270   18.11737207928550
P        15.89347174192142   16.59033709738433   21.04022443973987
Si       19.16580873512121   17.73722098904112   19.61770137281812
C        13.09844331000368   13.39219045687546   20.79909242525646
C        14.73260998846995   17.84750774837684   20.37529977593211
C        23.04440601758353   16.37316770389581   18.93421875115839
H        23.49816181163240   15.64937999931792   18.27173952428608
C        15.69456718148439   15.97214274453317   16.62547837473037
C        13.14991242300558   19.88941891062815   19.33102886190440
H        12.53457796600095   20.67676180681519   18.91994853241931
C        15.05609529111755   17.19645191167912   16.81661660737957
H        14.80682616027254   17.51985212167913   17.81815507746681
C        15.29628990943750   19.06769312614788   20.00744547501804
H        16.36126626253048   19.21269691898864   20.13409410276320
C        14.51392592111555   20.08053712579160   19.48784150329433
H        14.96632570638597   21.02102783547904   19.20603259788293
C        21.67890651924013   16.58305320408241   18.89897105193993
H        21.06135898109742   16.00763581846726   18.22234971680863
C        21.07030759528426   17.51219672618935   19.73885826194797
C        21.87201047992573   18.21183455520269   20.63349245329952
H        21.42273623554098   18.93150324842502   21.30157661451455
C        16.01700367481072   15.58940686355314   15.32732084902751
H        16.51101286160472   14.64634557627588   15.14310006728932
C        13.36060956830451   17.67132772867184   20.23450611203501
H        12.89210347429933   16.74175905327524   20.52371625855962
C        16.19469543437290   17.51907930476029   22.60003034858702
C        14.74487244617985   18.01257681974136   15.74677980788159
H        14.24391317004054   18.95445361932489   15.92090958713521
C        12.57825091723852   18.68753684799998   19.71048716669390
H        11.51384501754119   18.53617940344008   19.59932821845914
C        17.46897051641377   17.90615373291203   22.99401179635471
H        18.32293610831731   17.64998063586084   22.37911012164079
C        11.90540037802366   13.64777200921267   20.12443150962680
H        11.90912329367572   14.29238848502810   19.25526449067531
C        13.00401918874180   12.57736681686025   21.92826031723568
H        13.89491114292295   12.36990171858159   22.50705785669152
C        23.24028524745046   18.00502038697207   20.67503370197608
H        23.84719298510111   18.56040456890264   21.37550458626071
C        10.69704287258803   13.10880597336657   20.53160368141384
H         9.79339188167403   13.33125945491980   19.97863921037168
C        10.64063396136917   12.28991052461162   21.64460982786192
H         9.69967109695980   11.86488929521774   21.96605784133442
C        11.80520705207545   12.02990033021022   22.34619786082427
H        11.77595198947639   11.40014260152166   23.22594199778037
C        15.10884151489161   17.87280500619450   23.39620135879925
H        14.10829984111638   17.59683206406172   23.09380358822246
C        15.71042325857645   16.41129275027937   14.25519911754772
H        15.96939295383604   16.09705563043770   13.25406114656763
C        15.07422969659053   17.62288980199871   14.45806441107425
H        14.83350564420943   18.25894380947986   13.61887690562542
C        17.65920702600615   18.61909715664877   24.16460172865935
H        18.65706348611893   18.91370551410018   24.45643395101080
C        23.83104760643634   17.08837874515091   19.82295732666517
H        24.89882233489904   16.92689065814381   19.85398828575577
C        15.29839627444796   18.58223570918123   24.56606267582799
H        14.44728870069088   18.84930737602925   25.17614610369783
C        16.57488671324672   18.95619868839132   24.95515441313931
H        16.72131200061591   19.51278322928325   25.86940040591330
P        19.30554017009968   18.60933204364115   17.40052484837711
C        19.23208705216040   17.38304542649641   16.05615638633153
H        19.02113641049307   17.86720111867996   15.10315610390188
H        18.43286390406578   16.68001567657180   16.29570506708981
H        20.17713259279630   16.84664660845644   16.00062802403209
C        20.74148770098318   19.66678632140659   17.00342701359899
H        20.65484921467614   20.07159748420943   15.99611413897263
H        21.65148400429488   19.07576916002749   17.09290184823652
H        20.77611403472247   20.47790290283016   17.72878228314394
C        17.86885971981108   19.67465410478205   17.06912723823271
H        17.91458095009898   20.06634745793351   16.05308936970318
H        17.86370970594553   20.49277737258222   17.78702923294716
H        16.96311140582157   19.08138086275367   17.19399907956104
P        17.37604022243372   13.73610132429702   20.46498567140825
Cl       19.00087406536526   19.75356167640677   20.27905406230938
C        18.58084442252848   12.55981032390519   19.74659219695576
C        14.83313308217060   15.21140565680438   21.56035864400341
H        15.37795791502763   14.72455309516509   22.38041921706861
H        13.92185418509667   15.62516827683069   22.00615779340756
C        17.80772057707235   13.42116149287042   22.22218898828618
C        15.73561998238787   12.95038039960027   20.38903028611596
H        15.68928340521822   12.35896009020555   19.47099737760025
H        15.68653321235396   12.25716939848664   21.23422616712802
C        19.91251246190360   12.96665831778483   19.73465104557331
H        20.16549597999366   13.94974117696315   20.11450536072283
C        18.25538239854872   11.29530124884905   19.27311703864709
H        17.23147570520591   10.94969010344408   19.28554553144403
C        14.46145903304033   14.71669717574637   18.86149050964357
H        14.00696601442320   15.71281898725867   18.86379188662697
H        13.87488630502039   14.11375413098527   18.16021792217601
C        17.90884444854239   14.43448531942066   23.16251609390064
H        17.77180558771657   15.46198890462216   22.85724133838252
C        17.87451454668805   13.29165528133109   16.79994394784455
H        18.58883908375762   14.07452235486827   17.01693257949437
C        17.98318680926750   12.10202069420296   22.63513693409560
H        17.90860754613902   11.29760080910353   21.91579595247086
C        16.56753212172664   13.41891252060010   17.26309906107143
C        20.89533656493330   12.13629073931973   19.23303448679719
H        21.92517911947418   12.46435600676494   19.22471893867790
C        19.24201488890222   10.46475509257771   18.77036431030467
H        18.97664822330389    9.48544881293688   18.39808151400152
C        20.56051960286544   10.88337831011557   18.74347833821292
H        21.32674952477487   10.23320157262408   18.34633930131342
B        14.51238255990894   14.06562749872051   20.38862239507263
C        16.06006910219521   11.28698675987922   16.26155918742332
H        15.34399287785626   10.50484705580522   16.05295460987066
C        18.17559430621405   14.14623670551998   24.48943452409260
H        18.24099422819043   14.95131687286448   25.20737757424572
C        17.36562186239073   11.16780690744316   15.81659646001831
H        17.67295323202370   10.29291395508132   15.26267140132379
C        15.65943339375315   12.40562792585209   16.97104845766600
H        14.63374311849876   12.47242289654977   17.30244518503889
C        18.27285514769537   12.17842131785881   16.08414901712556
H        19.29393367285058   12.09826534434954   15.74001500594841
C        18.25801525859524   11.81319234515891   23.95775025425180
H        18.39609481119937   10.78616566746577   24.26441204531261
C        18.35311688394935   12.83420696346183   24.89051862184556
H        18.56329807980703   12.60474897285246   25.92490984904181
H        17.08982289332661   17.03698050897107   18.67602217788350
H        18.59093084281803   15.71630480897914   20.78912870014463
H        18.68139544948803   15.38847206439918   18.62322007114093

