67
CSD_code = GAMZAW | q = 0 | S = 0 | Stoichiometry = C24H40FeP2 | MND = 4
Fe       -0.57619765790421    6.67263284181656    4.90801646866851
P         1.00006777963648    6.09076370827098    3.53167512965734
P        -2.07112922058265    7.33657294273945    6.33584386067565
C         1.51044349421332    4.32592707313773    3.41682228491229
C         2.65601793332669    6.83023051950192    3.84904227303361
C         0.83737450880078    6.46961198484575    1.73599815502562
C        -3.57469299633405    8.22558653952285    5.74905943427972
H        -4.22183558120140    8.50015779287213    6.58155887604822
H        -4.11667388861671    7.58557405060022    5.05628865258412
H        -3.27273944800040    9.11822469491452    5.20578321758559
C        -1.49396942261760    8.52801463057495    7.61507380584577
H        -2.32053182499893    8.83546586738783    8.25507935432705
H        -1.06121535149467    9.40545452468187    7.13876374353592
H        -0.72904662243788    8.03848092800760    8.21276916340303
C        -2.87080642321076    6.10979611353481    7.45108625270712
H        -3.51518162068540    6.61630639730209    8.16920159445785
H        -2.09448010215215    5.56101647876617    7.98039600018644
H        -3.46716141926817    5.41197962582474    6.86612756900108
C         0.47979148433687    5.91098405426651    6.40550514930762
C         0.11967329038714    4.57166722441141    6.59849892238236
C         0.69455179708670    3.78280536961956    7.57924094813519
C         1.66612012673264    4.30683135360267    8.42232367853525
C         2.03352400688077    5.62957808143619    8.24656575050518
C         1.45642288665643    6.42191394954682    7.25939756881560
C        -0.94040161169639    3.99057470459979    5.69086016809846
H        -0.55104131240757    3.13558124956331    5.13812407369182
H        -1.29461603578463    4.74624711230009    4.96539834408254
H        -1.79448709684765    3.63867220650642    6.26956884622512
C         2.30067101248972    3.45132260062893    9.48025217065021
H         1.54124596197477    2.91901898125982   10.05209450144936
H         2.89307483321196    4.05488003645271   10.16450860049911
H         2.95616128211055    2.70737597933556    9.02503486178075
C         1.91715679403572    7.85011663498314    7.13993368360622
C        -1.64979584668606    7.38031657426255    3.42341381639811
C        -1.35454872610679    8.71572146919586    3.15448763743986
C        -1.98990481953139    9.42397851891952    2.14655664452115
C        -2.95627329278201    8.81047197289585    1.36478681163986
C        -3.26279184673312    7.48184015074226    1.62323034135577
C        -2.62497336083939    6.77439578940658    2.63134434389605
C        -0.30585326031173    9.38330331604673    4.01226487570288
H         0.49496986910844    9.80067864396262    3.40031912455080
H         0.13477504494143    8.65124614107386    4.71446671610991
H        -0.73909543926212   10.20052157302336    4.59137032352412
C        -3.67252878215927    9.56601120639208    0.28302705417485
C        -2.98417316759466    5.33618823656262    2.88025573159943
H        -4.01711174046154    6.98954517203220    1.02095925969049
H         0.38611166485690    2.75022569573018    7.69340026542328
H        -0.05148171268082    5.97584349444724    1.34938444743954
H         2.78826890629990    6.06177007914328    8.89299819855716
H        -2.10697291122619    4.70031725927895    2.74789445509445
H        -1.72997815210284   10.46068972533390    1.96753499875926
H         1.75773427500289    8.38916426139631    8.07401663414798
H        -3.76247232103587    4.99739044162029    2.19982956622652
H         1.37101973063470    8.35737600788032    6.34635502859931
H         0.68807606111791    3.72717236814094    3.02955177291689
H         1.77309468672514    3.97273760654743    4.41196908646092
H         2.98304160828402    7.89653517300265    6.91544857327337
H         1.71469737182391    6.13933715405615    1.18068060900648
H         3.37189597252532    6.51089334186808    3.09217341423728
H         2.58601166149323    7.91623211637679    3.84351367503778
H         0.70117628582001    7.54127911906247    1.60874918409868
H         2.98960375698573    6.50350360683656    4.83096099965989
H        -3.91473419293103    8.91128826823036   -0.55220560012670
H        -3.06402037514615   10.39078622220789   -0.08274875283486
H        -3.33966279649857    5.20940770845310    3.90446977539273
H        -4.60702166278039    9.98022245880410    0.66593230404411
H         2.36962795558453    4.22454287420459    2.75421558029004

