93
CSD_code = GAMZEA | q = 0 | S = 0 | Stoichiometry = C38H52FeP2 | MND = 4
Fe        0.00002050753220    0.00004080497385    0.00006920795227
P        -1.49897609028386   -1.57995068234755    0.15734573967203
C         1.34009481643754   -1.30747794651460    0.67210616111295
C         1.41481789237178   -1.27561423001855    2.06808602390465
C         2.23194400350235   -2.12991610555268    2.79056493240061
H         2.24730797304817   -2.06877464772150    3.87196900235607
C         3.02664597223592   -3.05966547188379    2.13862428574294
C         2.99674239391468   -3.07895102105316    0.75293288992974
H         3.63063538926650   -3.77770550883292    0.21985962587571
C         2.17831574176878   -2.22079607833421    0.02865963510743
C         0.60418834475978   -0.23353271427118    2.79748110341259
H        -0.01450458023124   -0.68128554701152    3.57464329630756
H         1.26485231981477    0.49105332268140    3.27538332699405
H        -0.05289409981508    0.30327544695102    2.08976066411142
C         3.89663485167497   -4.01720795969234    2.89988367837365
H         3.45342542005714   -5.01438013708671    2.90132177190208
H         4.01413646453979   -3.69634041426543    3.93274200643911
H         4.88206788218073   -4.09233206528527    2.44220520700360
C         2.24725924771423   -2.28421765171120   -1.47338575775088
H         3.28312008111802   -2.23725177924636   -1.81007382046323
H         1.70185337052090   -1.45009481971803   -1.91257782759046
H         1.82489267366632   -3.21673886259453   -1.84782489175399
C        -1.84239338482274   -2.06455985597659    1.88842858687717
C        -2.75102030947454   -1.33085475015108    2.64799906760016
H        -3.29127607914081   -0.51299177194045    2.19447990373064
C        -2.96850926514840   -1.63594018602432    3.97906886458953
H        -3.68205593941653   -1.06203314315698    4.55313778567053
C        -2.26857606342307   -2.67038239695798    4.57822519479160
H        -2.43553719606872   -2.90735475007967    5.61883812563764
C        -1.34709416728653   -3.39165489194770    3.83794856702194
H        -0.78694181100735   -4.19007052933812    4.30258850889421
C        -1.13153192766892   -3.09063223627592    2.50493199143216
H        -0.39239623646260   -3.64766419936561    1.95140292043068
C        -3.21680592412135   -1.23857543251582   -0.46379490865051
H        -3.52189614739936   -0.29396425819139   -0.00760826904475
H        -3.12068316252181   -1.03140310387917   -1.53282014121967
C        -4.26223493702898   -2.31831354256938   -0.21527039297774
H        -5.24392014616872   -1.95749933512810   -0.51880991370659
H        -4.30699988472768   -2.58212303386518    0.83967513080740
H        -4.04682653304801   -3.21945100861539   -0.78394635196435
C        -1.18741695892329   -3.26963382379415   -0.55673967117513
H        -0.17904276642439   -3.54851847564746   -0.24294165575801
H        -1.89559143258112   -3.97091606516335   -0.10581734438121
C        -1.27002442760751   -3.33364292161163   -2.07581686596885
H        -2.26084868385019   -3.06308179114745   -2.43404833611270
H        -1.05507956799011   -4.34614432848708   -2.41638655117775
H        -0.54408238637978   -2.66280249289898   -2.52726171645529
P         1.49904449712260    1.57997857453057   -0.15732719479658
C        -1.34010208404608    1.30745446522849   -0.67209820585835
C        -1.41483526019674    1.27551134584306   -2.06808188875036
C        -2.23199058979282    2.12975416266156   -2.79060362492981
H        -2.24738843267614    2.06853240293079   -3.87200471450615
C        -3.02669051994985    3.05953896742931   -2.13870945243538
C        -2.99673614685213    3.07893579209537   -0.75302068793786
H        -3.63060939978717    3.77773438471729   -0.21998107269640
C        -2.17829183600490    2.22083238344404   -0.02870729524242
C        -0.60416611738296    0.23342916722011   -2.79742985787630
H         0.01459332042920    0.68118664904680   -3.57453846932567
H        -1.26480313543180   -0.49113784657830   -3.27540002031913
H         0.05284747154495   -0.30338994829763   -2.08965460478435
C        -3.89672881710461    4.01700426180690   -2.90001142146543
H        -3.45354940116461    5.01418906131230   -2.90153445186017
H        -4.01424933939515    3.69605958571769   -3.93284316893671
H        -4.88215321715534    4.09213645963770   -2.44231426845236
C        -2.24715709086673    2.28440102086823    1.47333478155452
H        -3.28298457569242    2.23723428997979    1.81009086123222
H        -1.70153466292431    1.45045438187287    1.91258842995499
H        -1.82498651377297    3.21705814735118    1.84765271109817
C         1.84238782660549    2.06464035165535   -1.88841331478780
C         2.75107654697358    1.33106006026782   -2.64802877678651
H         3.29144833290579    0.51325241958936   -2.19454973114293
C         2.96847425598550    1.63619406373791   -3.97910248007580
H         3.68207264884657    1.06238595183853   -4.55320513725648
C         2.26838718180233    2.67055540513547   -4.57821650919925
H         2.43528593127411    2.90757001177349   -5.61882943468652
C         1.34685125108578    3.39170933749554   -3.83789154788558
H         0.78659277155797    4.19007310016130   -4.30249154185544
C         1.13138042884193    3.09064059991438   -2.50487186981089
H         0.39220321879295    3.64757469295526   -1.95130157208879
C         3.21687231850565    1.23853064013482    0.46377273330404
H         3.52195042213155    0.29394278048730    0.00752453899842
H         3.12075279328505    1.03128915516054    1.53278690579711
C         4.26229663771597    2.31828377371044    0.21530631385068
H         5.24398261385256    1.95743807853148    0.51879733106133
H         4.30704028394835    2.58217869595009   -0.83961958891874
H         4.04690558153321    3.21937852219986    0.78405767807012
C         1.18749736956623    3.26963387050817    0.55682130527339
H         0.17912507958609    3.54855340313099    0.24304226832923
H         1.89568301661469    3.97091224669549    0.10591670454714
C         1.27011631591993    3.33358090789940    2.07590065052875
H         2.26092976672092    3.06295951227145    2.43411705497471
H         1.05521873139689    4.34607927572549    2.41650829719138
H         0.54414528854774    2.66275782751075    2.52732454896763

