81
CSD_code = GANCAC | q = 0 | S = 0 | Stoichiometry = C24H48N4O4Zr | MND = 8
Zr       -2.92383452138384    0.18740036507139    4.19691614268563
O        -1.86037243571255   -0.92570059400116    5.64208069945512
N        -3.04021837687594    0.73360994694863    6.43043145104851
C        -2.25128584437368   -0.26571551857493    6.66987010819584
C        -1.74361574964538   -0.76403922441533    8.01721700604945
H        -2.54922491946672   -1.26209913813491    8.55224663333123
H        -1.35766036236403    0.04358260695658    8.63245472496209
H        -0.95191735017965   -1.48668110449228    7.83115029555063
C        -3.56007006089383    1.70940381024316    7.37967981916120
C        -4.22211811148064    1.07889441520245    8.61671884758847
H        -4.83143774658864    0.23089468754500    8.30979920543870
H        -4.86765824348945    1.81158707027744    9.09617725579786
H        -3.49268307065331    0.74484773058810    9.34826546124530
C        -4.62471657230999    2.50583881479974    6.61026954011598
H        -4.19483505965561    2.86489557503564    5.67672692351933
H        -4.98070548731343    3.34612241293084    7.20404415570294
H        -5.46162443503582    1.85698555625835    6.36301869043950
C        -2.43566316575386    2.67377641900726    7.79287575097328
H        -1.64865174600420    2.16003827943281    8.33997860187503
H        -2.83210534358182    3.46724839201752    8.42259975857828
H        -2.00140132541633    3.11264039928138    6.89688915979854
O        -2.61277278273357    2.29230488279755    4.08952043841898
N        -0.80755187581275    1.07115557370773    3.94072467348351
C        -1.33151012142229    2.25154037402106    4.04552514432068
C        -0.61832820600274    3.59772974554671    4.08928425806316
H        -0.21166261659318    3.83552477849220    3.10868288744890
H         0.18879070922250    3.60623773857639    4.81599131004129
H        -1.35072072093611    4.35718738156593    4.35496562966872
C         0.60733535453393    0.72122242558482    3.97234608494222
C         0.67288480176790   -0.76096125437439    3.57390625599278
H        -0.03463262110856   -1.32223236105265    4.18307936870784
H         1.67897582681821   -1.15208568542888    3.71532821615554
H         0.38901618831527   -0.87484268509611    2.53025454560992
C         1.14125624257344    0.86101603997699    5.40735742517518
H         1.10678116264078    1.89307364780997    5.74852559597735
H         2.17086234683392    0.51403173509328    5.46139665627633
H         0.52457940050672    0.25722787615746    6.06988029294821
C         1.46882977683216    1.52973073342639    2.98672275154459
H         0.94389286356816    1.63042157163470    2.03874922584812
H         2.40426007135589    1.00388383420807    2.80817002108073
H         1.70789020636899    2.51860961436769    3.36555954511168
O        -4.98717795105108    0.56250932241574    4.29938487248624
N        -4.43496792550896   -1.54285678317146    4.45718812342458
C        -5.37392681805208   -0.65929704691311    4.32786579185298
C        -6.87795963300118   -0.88779252820602    4.23733926884210
H        -7.26574167562039   -1.19436848755458    5.20616222107690
H        -7.13013034581028   -1.64481749040165    3.50058805145864
H        -7.34256310629469    0.05540971487168    3.95894839873793
C        -4.55676060402140   -2.99351724793320    4.40107059276559
C        -5.64196796155562   -3.56636939853655    5.32890891679299
H        -5.60369383742964   -3.06444592968092    6.29354500160693
H        -5.46055117151614   -4.62755786822054    5.48577382747882
H        -6.63811518120664   -3.45472221088490    4.91210820067621
C        -4.79668830785356   -3.43299789373608    2.94737597295281
H        -5.74410377819159   -3.05564456560053    2.56876249814641
H        -4.80405496049152   -4.51869940985626    2.87766067918932
H        -3.99318977943235   -3.03925972994888    2.32790312991746
C        -3.19187581982316   -3.53559249697120    4.85086226456908
H        -2.41212526882041   -3.05387958511276    4.26265281897017
H        -3.14415206574704   -4.61529760926823    4.72033729808332
H        -3.02589530692519   -3.29358059054953    5.89823731992847
O        -2.22539478811058   -1.18427147077401    2.74557258630345
N        -3.33409681644083    0.52248771663869    1.95722183725067
C        -2.61084701172703   -0.52476857054661    1.71530054304949
C        -2.18463472386442   -1.08291165849406    0.36348336039562
H        -1.42795390733824   -1.84445672512006    0.53917662701858
H        -1.77557035742542   -0.31026782947448   -0.28111114247386
H        -3.03433114981785   -1.54533777308781   -0.13382344826559
C        -3.85444120152901    1.49394328436458    1.00443774868895
C        -4.88529066810662    2.32155149103862    1.78725283447647
H        -5.73599749046650    1.69609637408255    2.04742708940392
H        -5.22873959731422    3.16823940484547    1.19545103415600
H        -4.43012270015724    2.67214906191582    2.71223201320595
C        -4.55896907078383    0.86369461661371   -0.20953275944670
H        -3.85473244997676    0.51139645180560   -0.95684450094457
H        -5.20226728923738    1.60526186264632   -0.67834189921604
H        -5.17686590071624    0.02983937050694    0.11745779607691
C        -2.71880705381517    2.42565210798945    0.55075821216079
H        -2.27325574869251    2.88873315618974    1.42900114670258
H        -3.10610864601355    3.20215179584611   -0.10538402106401
H        -1.94470801242631    1.87648829898824    0.01880913451051

