56
CSD_code = GANCIJ | q = -1 | S = 0 | Stoichiometry = C10H25B18CoPSe(1-) | MND = 10
Co        5.97866213651406    9.36006848884455    2.64234550647121
Se        4.08942547221867   12.25860238815884    5.41938448103628
P         5.09557175562315   11.77001706427715    3.60523486757749
C         6.70359820140772   10.90631446752089    3.75988288081954
C         4.30264068917981   10.52433382074645    2.51083542400136
C         4.04631445578802    9.28034405423847    3.40456669386971
H         4.09140267821755    9.44057450716759    4.47688586657361
C         7.41324773827569   10.83815847906776    2.38369126811945
H         7.07010196001412   11.53119681706303    1.62212292919045
C         5.43189667360406   13.35412992444810    2.74685478144391
C         6.02944200878645   14.35284045990671    3.51046089516984
H         6.24617625677292   14.16075670779397    4.55245382562988
C         6.32564691938574   15.58150484594669    2.95471224520332
H         6.79398163229370   16.34689195252518    3.55715611093261
C         6.01903285532509   15.83034780879724    1.62595960757742
H         6.24863295315053   16.79166547999012    1.18779700755330
C         5.40945941960224   14.84809161236613    0.86553037406112
H         5.15860582008735   15.04043492244479   -0.16825163789795
C         5.11594075033906   13.61326139904780    1.42032307122908
H         4.63822568191748   12.85919185768222    0.81643484271534
B         4.93226300091182   10.05683826154898    1.01496907021759
H         5.56924271435520   10.81601290079777    0.36300445868166
B         6.75851077953286    9.41755555922503    4.54823882257559
H         5.95020526971447    9.15895144260224    5.37128074943691
B         7.81168240792235   10.76067394652030    5.04794573949436
H         7.58886120353020   11.31430476273028    6.06548627728361
B         3.22368950521239   10.54313585260235    1.17840645690715
H         2.85259892029909   11.57404654088743    0.72976442412745
B         8.23630533301815   11.68321259698838    3.63227978069343
H         8.27457745287932   12.86131618780809    3.55437518495529
B         2.66262564238993   10.04593850233615    2.74884044420822
H         1.99362468125154   10.69616648755935    3.46634768908827
B         7.92702111797496    9.29798274889503    2.02744100093487
H         8.05315950169022    8.97617128063924    0.90097320755182
B         4.57202896226760    7.87393246411884    2.69654607551637
H         4.88267870971563    6.96087508569860    3.37218856281917
B         7.57829590629508    8.32982740464050    3.45328071921409
H         7.48597229476143    7.15403524045599    3.46892566064299
B         5.10622004825474    8.32014618751673    1.08251122687293
H         5.83659121860922    7.68691740189305    0.40593298312885
B         8.45654568531963    9.11280280191776    4.83502598975518
H         8.81600538616519    8.47123767529031    5.76105201720713
B         3.68102197770589    9.08973837280264    0.26578296532666
H         3.56661263880853    9.05170774520646   -0.91178148003303
B         9.38218420611637   10.50441826373799    4.24549585932633
H        10.40643892649923   10.84302946959596    4.73047118702434
B         2.27590357002547    9.05063501613585    1.34900234501614
H         1.16668397179807    8.96050816877487    0.94886809818317
B         2.81420924433611    8.28684977536858    2.84306130726603
H         2.16455809661543    7.69846000389014    3.63326608152039
B         9.07531841904730   10.61147487204076    2.50836215864152
H         9.76206567270989   11.09347230567664    1.67556311334643
B         9.21570437053118    9.01999762612373    3.23671431939316
H        10.14861170307417    8.32697968543974    3.01810624233084
B         3.44922153993433    7.68452568293806    1.31730328587723
H         3.13485386222348    6.62469462156212    0.89778693419124

