45
CSD_code = GANCUW | q = 0 | S = 0 | Stoichiometry = C12H24N4O4Zr | MND = 8
Zr        2.40587957668480    6.31071174788802    8.67829471898515
O         2.90585481545362    8.09494443395661    9.71965259768993
O         1.12674430866388    4.71495337936085    9.19205353129762
O         1.48831385522954    7.50252179479280    7.21840580634444
O         4.27240199077868    6.73261057536330    7.78690280692732
N         4.01447453416541    4.68059606475737    8.54128137064132
N         3.17254512994449    6.19532641396467   10.80041941701613
N         1.98533690996990    5.45289049656118    6.59141240829755
N         0.42079475181711    6.73374172794075    9.70230816746747
C         1.63632620829676    6.66264147145493    6.26238743908168
C         3.26703797977967    7.49728318862820   10.78757646995570
C         3.76547054710691    8.31811033672829   11.96213547507915
H         3.76278818981647    9.36849853629827   11.68646552715295
H         4.77500526923893    8.01312306838797   12.23237011744679
H         3.11799521271927    8.16499889551543   12.82411983670076
C         1.38710610234325    7.11949714868689    4.83820998020506
H         1.09688184141911    8.16609676080796    4.84748939329006
H         0.59756117268782    6.52287957626277    4.38354674568488
H         2.29386595665622    6.99788278210166    4.24802543996522
C         0.16921049561307    5.46382759196927    9.60570679386913
C         4.48373439775382    3.33331923160314    8.78308750084720
H         5.31265219947677    3.32005538191116    9.50252846778889
H         4.82757214820792    2.84966059866928    7.85980028328074
H         3.65262839018308    2.75966441524223    9.19230063888159
C        -1.16352583498545    4.83178854054079    9.95920610126215
H        -1.95154477451842    5.25232139038248    9.33658030923990
H        -1.40691832136971    5.03363911727695   11.00106346564075
H        -1.10489378274391    3.75935466661967    9.79875656814036
C         4.77467829278065    5.56575995924392    7.96890245439169
C         3.54359710697376    5.43027510158991   11.97257895574852
H         3.33607409822968    4.37998475103253   11.76790065934133
H         2.96925496461938    5.73816207106035   12.85581189147232
H         4.61090324763334    5.54120116144670   12.20535075838226
C        -0.58652244521102    7.68048875912009   10.12747663303767
H        -0.13871222739762    8.67380551265062   10.10208158904867
H        -0.93225813792872    7.46869010546898   11.14780388439052
H        -1.45794326241135    7.66841595555444    9.46083839489556
C         2.21727650367080    4.44319635124251    5.58122238760747
H         3.06608275662519    4.70806034770525    4.93697932843777
H         1.33652160258642    4.29900359839610    4.94274397990942
H         2.43789587220316    3.50481558234848    6.08981561937353
C         6.19460228794605    5.29592709068942    7.50747383585278
H         6.19734121454363    4.51214932784191    6.75144620420558
H         6.80407980983816    4.96450130787529    8.34652005374786
H         6.61302904490590    6.20662368306176    7.08886599198048

