69
CSD_code = GANCIK | q = 0 | S = 0 | Stoichiometry = C20H40HfN4O4 | MND = 8
Hf       11.97209956490132   16.81424663975139   -1.16705632016893
O        13.71967797667731   16.91221123105348    0.03601030480175
N        12.08520285878598   18.25685846615806    0.60880856983494
C        13.30713461564105   17.86482462389142    0.78736048459154
C        14.26710684120683   18.42361754270967    1.82126343454637
H        13.84980164881553   18.32165625678342    2.82138767612432
H        14.45789140947493   19.47784062835672    1.63467477870712
H        15.20073892731192   17.87169095411398    1.76252745815839
C        11.49194793081267   19.36857630155752    1.33041658068650
H        11.92962481046752   19.46618495743217    2.33724907997840
C        11.72975236613251   20.66607520658332    0.55107262499431
H        12.79261356177826   20.89227757988804    0.49532245422674
H        11.21888923432919   21.49825853016992    1.03020355118768
H        11.35125256823318   20.53741129104698   -0.45993556747659
C         9.99429517592696   19.09649750312847    1.45965047563366
H         9.58859519775098   18.89942481447537    0.46961820521396
H         9.48557972848083   19.94945432434603    1.90385550756523
H         9.82547778114929   18.22081149537917    2.08219119612495
O        11.76882663615401   18.74019008691022   -2.06823358454146
N        13.50579360001178   17.54191245950844   -2.65044942039074
C        12.86387422663641   18.66552689959285   -2.72780825429649
C        13.31122428159121   19.87786339945091   -3.52079144659731
H        13.46619478118171   19.62001145843707   -4.56548921655591
H        14.24632362036803   20.26243146201450   -3.11737950720070
H        12.54650439236038   20.64519463105441   -3.44609947323354
C        14.74652050587943   17.26607572287270   -3.35041444780994
H        15.31961294767212   18.19186074135802   -3.52032522840482
C        15.56304726751848   16.31517379262651   -2.47670614293944
H        15.83964368288584   16.80794799054799   -1.54873862463008
H        16.46266151649971   15.98980166004205   -2.99520935911999
H        14.94485725980782   15.45494321002256   -2.22637397715562
C        14.44181903878406   16.61513856848204   -4.70449767506477
H        13.90121345173622   15.68710990182616   -4.53848175503010
H        15.36523038780200   16.40083919630468   -5.23800363357842
H        13.82552828905945   17.26884136034208   -5.31799642123995
O        12.49508871310227   14.88882590673568   -1.89078201896157
N        11.06279118308673   16.01270916508534   -3.11285762203275
C        11.70155297881715   14.90647379310085   -2.89715563809854
C        11.60220325492955   13.65387081008469   -3.74799366919799
H        10.58662845278011   13.26524792593958   -3.73868777392474
H        12.27893370092663   12.90583766018748   -3.34529086901480
H        11.87726488143749   13.87199174557275   -4.77831131667921
C        10.07780934854338   16.17088928109407   -4.16809148424269
H        10.31553085028133   15.52844209126504   -5.03156826073984
C        10.09762429960001   17.63276825817482   -4.61105983933085
H         9.96489926116194   18.26453988173131   -3.73538604339404
H         9.30459633746747   17.82732261487689   -5.32998507203640
H        11.05515073808155   17.87268142969609   -5.06763373034214
C         8.69196611664010   15.79869930265906   -3.63104313664642
H         8.65482803426148   14.74610643952497   -3.35789871557476
H         7.92745521909791   15.99368048603024   -4.37977518562380
H         8.49369370834330   16.39260675894372   -2.74227849417388
O         9.87754604401422   16.73387522970166   -0.75323514041537
N        11.18876234553450   15.48307271104938    0.47483183171962
C         9.98362025731684   15.84102558883516    0.15844998076358
C         8.71435329800260   15.28338374459387    0.77207624165030
H         8.72133972857431   15.40660495071061    1.85217458368555
H         8.62685156186394   14.22211561699383    0.54605420733198
H         7.86284202077175   15.81052797663006    0.35229715579026
C        11.50218883647634   14.50831214597609    1.50293543496467
H        10.68880082170585   13.77284168147486    1.61241329333045
C        11.71097558972754   15.22059569915199    2.84426899565307
H        12.52696299319194   15.93161775499027    2.74558349201663
H        11.95600472295014   14.50020462533499    3.62162946325532
H        10.81454501369539   15.76254806772589    3.13799611491659
C        12.78297582590944   13.79190878428232    1.07778707167940
H        12.60868023315917   13.23159464055663    0.16337119651357
H        13.12396227167740   13.11406042266215    1.85767286243228
H        13.54821327271241   14.53793592103527    0.87106975841157

