81
CSD_code = GANJUB | q = 0 | S = 0 | Stoichiometry = C42H35NNiP2 | MND = 4
Ni       11.57730794522463    1.27941798902740    4.53949754454275
P        12.38223820722063    0.71389328770848    2.63706831115239
P        10.77138602486256    2.00954293156334    6.41546121995039
N        12.44213399490525   -0.29678136561714    5.24155423756833
H        12.43289138344859   -0.61558326398755    6.20974932738641
C        13.09015447057043   -1.14631176622970    4.43046194493299
C        13.69806557533198   -2.34622695291125    4.86028694748931
H        13.63969747256579   -2.61775931492777    5.90699895623475
C        14.35965881351213   -3.15564444406132    3.96846689603381
H        14.81727803434196   -4.06953996557044    4.32318271403987
C        14.45881881823400   -2.82595476579995    2.61805574756059
H        14.98770296999552   -3.47561007584535    1.93717350152946
C        13.87393081067818   -1.66020085053549    2.16162064451840
H        13.93897721918018   -1.38094084683141    1.11771624452414
C        13.18812933219503   -0.84484492109171    3.04654035646663
C        11.22125819465145    0.39342768908766    1.28146270687993
C        10.72685824454482   -0.88316003852191    1.04271115751375
H        11.08245425521844   -1.71142239479043    1.64017723320565
C         9.79120924704467   -1.08685118044328    0.04354824311413
H         9.41348465914982   -2.08154623985921   -0.14498052073559
C         9.33693586063205   -0.01887012757899   -0.71215816621769
H         8.60598585135386   -0.18059005888148   -1.49108640784558
C         9.81653206387456    1.25879918237106   -0.46663951684932
H         9.45692731862178    2.09363255201271   -1.05062101595220
C        10.75126986732172    1.46782928476904    0.52842263570853
H        11.12491848999525    2.46277696525970    0.73006499594345
C        13.70551351596212    1.66724854097618    1.83575643403667
C        14.53531308296187    2.42146919279673    2.65875221414271
H        14.31465164409586    2.46683041798229    3.71788520008779
C        15.61820549972815    3.09806618072549    2.13178977530653
H        16.25725731736413    3.68551579457969    2.77538946281953
C        15.88353391736271    3.02093712873972    0.77387381241274
H        16.72877896662685    3.54886256299541    0.35709395694794
C        15.06582853596186    2.26426966172365   -0.04933710761264
H        15.27697890443038    2.20032461493738   -1.10718394637447
C        13.98043339233035    1.58591299086554    0.47577242638315
H        13.34394602240620    0.99838379271692   -0.17087194408302
C        10.74001606523758    2.72380976825172    3.65861443025548
C        11.31675074856208    3.96277212659625    3.38062095313474
H        12.34129097727972    4.16890761409605    3.66878901477178
C        10.58993990209664    4.95151509947384    2.73463499699199
H        11.05546141236636    5.90584022790797    2.52754522667560
C         9.28028616199118    4.72226626890815    2.35218303291308
H         8.71833589174117    5.49497710444127    1.84702736059627
C         8.69526514997315    3.49570450611288    2.61722286993066
H         7.67279957685833    3.30665995414477    2.32068546268680
C         9.41834053754398    2.50709863476119    3.26009310304097
H         8.94399828709157    1.54871023717088    3.45614125376161
C        11.94583383418965    3.25267426212350    7.03443094663165
C        13.24844829199010    3.12947749915497    6.56166202296725
H        13.46716306239941    2.31783043648350    5.86824429223222
C        14.22905838679398    4.01530969964503    6.96512933273483
H        15.23853645545294    3.91811107751493    6.59263513333852
C        13.90925089628396    5.03369257445470    7.84914044350261
H        14.66933110068636    5.73291506843887    8.16549077540098
C        12.61412127868657    5.15993895825121    8.32626683940500
H        12.36939804654316    5.95527294950913    9.01551150799552
C        11.63030487687000    4.27390548883325    7.92338164589105
H        10.61854873212464    4.37939664670937    8.29025683525045
C         9.16737637183133    2.86592946509252    6.53091433200452
C         9.05898023794395    4.15659882884312    6.01787453285605
H         9.93474216851651    4.64487346514965    5.61459308406588
C         7.84051327188208    4.80685037495578    6.01853697357327
H         7.76708872530770    5.80740736604407    5.61856419761837
C         6.71492668025255    4.17505730041125    6.52301353024335
H         5.76150781708152    4.68248892374449    6.52020817637110
C         6.81471494662313    2.88983859504801    7.02742955728221
H         5.93911070323767    2.39262938452117    7.41931512476643
C         8.03344863176324    2.23435968759154    7.02871503320516
H         8.10247328757480    1.22939147662887    7.42083985273865
C        10.64321858944911    0.83385160828695    7.80763737252254
C        11.03178094783632    1.13072285937799    9.10749009269523
H        11.45013284256714    2.09928359638381    9.34058952252889
C        10.89033383868532    0.17957634001305   10.10336439087355
H        11.19496574337309    0.41305199924539   11.11331558257744
C        10.36408257279956   -1.06778306778046    9.81084631377453
H        10.25855971793741   -1.80586925337146   10.59228238828173
C         9.98128746687580   -1.37171031357394    8.51393268314006
H         9.57870187609985   -2.34700620092831    8.28181557352731
C        10.12441435188653   -0.42587463893130    7.51629244337834
H         9.84781361375004   -0.65485618736737    6.49356553904941

