85
CSD_code = GANLUD | q = 1 | S = 0 | Stoichiometry = C30H42F3N6Si3Ti(1+) | MND = 6
Ti        2.91750206826398    2.36033672017708   14.29313626203054
Si        1.48780630416995   -0.06805048963037   14.03747339991180
Si        5.73903208750903    2.26113403674627   14.44874844515425
Si        1.57262140542832    4.62106234581775   15.33720806107039
N         4.56893191961599    2.03968892921348   15.81666834819110
C         4.79713596606160    4.03314676603856   12.55342684612640
F         0.70661793931277    6.26157513602826   13.41866883870210
C         4.55610064108556    0.76664787128246   16.52019500834452
H         5.54260688291119    0.28872453203022   16.51345354745028
H         4.28660588191928    0.91588497229535   17.57003831668507
F         6.90907465348871    3.02228275678932   12.17513608202646
N         2.13229301846624    3.16661444886603   16.26502484392924
C         5.99559465783240    3.97605252954607   11.82851084958573
C         1.03939325220209    2.29044202284579   16.66278366458741
H         0.62882248644373    2.58309330803437   17.63940417912755
H         0.24254672930671    2.38168068002646   15.92144618564808
C         0.52282947360536    3.05434656957027   11.75765608011832
H         0.80812947608969    2.02740962274679   11.91028115385854
N         1.51012462095033    3.63862493290736   13.90512180769500
C        -0.15760656305870    3.41203306426650   10.61004010023098
H        -0.37944245566770    2.65517298201724    9.87378988453089
C        -0.27044216625988    5.67380182946434   11.36076905458282
H        -0.56251232007543    6.70497515312845   11.24236284242924
C         4.17363627516231    5.86226484378885   11.07642263237671
H         3.44589104752935    6.60625288993824   10.79190567636775
C        -0.35004420372981    0.46786095684559   14.08157476053709
H        -0.84773823289379    0.14699272697460   14.99159113107832
H        -0.88492961522730    0.01242700744981   13.25489092435736
H        -0.46825092052222    1.54576674606217   13.98493724897203
C         6.29217875049048    4.80798056107387   10.77281862523669
H         7.23720973898741    4.69380989396931   10.26633772909511
N         2.30969891738792    0.55410273557593   15.52951478036145
C         3.53780614664752   -0.16232428291256   15.84378163201217
H         3.33923475271642   -1.03144538632200   16.48657042826582
H         3.96878447301102   -0.52664500798837   14.90869610682926
C        -0.56008611996574    4.72030699853637   10.40001548530882
H        -1.09175483637914    4.99775327499642    9.50500953816569
C         4.52204732889090    3.18318878943698   16.71694741003591
H         4.76173082511613    4.07998234023199   16.14124106847595
H         5.26485177730607    3.08826419561143   17.52146756986063
N         4.53355954865997    3.19805593891041   13.61882752477156
C         6.18031157701983    0.53946042301244   13.73627037888219
H         6.56176565424835   -0.13286793687123   14.49871824339592
H         6.96036714840120    0.64032737753182   12.98909200863184
H         5.33027437769120    0.06383773248910   13.25006559675644
C         2.92557172772042    5.97184295546329   15.44587379867147
H         3.18235517316632    6.21047656602619   16.47342780429630
H         2.56587001215880    6.88915355723574   14.99195766470767
H         3.83558240215856    5.68928621944942   14.91957425834066
C         7.29646395089046    3.15071498953505   15.10949499788247
H         7.55518457170422    2.81471982155866   16.10900730941297
H         7.16930371362237    4.22905125622852   15.14462245132453
H         8.14890518407087    2.95166612644023   14.47031953878761
C        -0.07223352726507    5.23836198699523   16.09024007898217
H        -0.07590032985924    5.14798551429273   17.17209384864432
H        -0.92945280508460    4.69077813037478   15.70879528855288
H        -0.23127198986277    6.28378631608293   15.85239598723097
C         3.89475976248963    5.01996325841570   12.13512680123737
H         2.96651447933559    5.12529617263378   12.67026202197086
N         2.58470911491321    0.88131635671340   13.08066597428788
C         1.49900482080747    0.82621801341618   16.70616467156623
H         2.07773874491863    0.64266888669174   17.61633744619080
H         0.62060506109986    0.17222221189728   16.75472283656602
C         2.79594699981934    0.69863494879932   11.73028156318615
C         3.11909727697816    3.35060070959742   17.31786043071958
H         2.96412647241408    2.61764511243975   18.11523496522852
H         3.03954975806700    4.34086146293701   17.78117319848313
F         0.82597231313924   -0.60407849442972   11.51113862906864
C         3.90301622270503    1.24345190748152   11.06620833023675
H         4.60957938831574    1.82107200770049   11.63754337078828
C         1.93583038823834   -0.06364458751208   10.92768784265325
C         1.64643844291486   -1.97262636068162   14.00070094110138
H         1.55599112307873   -2.40022328053514   14.99457023692617
H         2.59599096291095   -2.29766289960730   13.58502931935368
H         0.86545520871313   -2.40843293233219   13.38839739562515
C         4.11458617636306    1.04441322822601    9.71582166311564
H         4.98178639034548    1.48574931198114    9.24961784935410
C         0.84250917874894    3.98980444714664   12.75065887886329
C         5.37063375305272    5.76612412296931   10.38688147057563
H         5.58765696811270    6.42448050303374    9.56218225194252
C         3.23509908147061    0.28535986529830    8.96213254649473
H         3.40185253247923    0.12971213604731    7.90923281652242
C         0.41072050932123    5.29896823743327   12.49661636327458
C         2.13144658585969   -0.27519993119305    9.58173958245424
H         1.41769382981783   -0.87225139280656    9.03696727358633

