45
CSD_code = GANLUE | q = 0 | S = 0 | Stoichiometry = C22H18I2N2Pd | MND = 4
Pd        6.56953231129492    2.11735971523645    3.56409104298132
I         4.62362714694096    2.38452866760290    5.32863968061794
I         8.51788559299479    1.84287431995188    1.80436965579562
N         5.55010458470365    0.73120065699471    2.62708824691072
N         7.58541393322657    3.50517910277076    4.50245688485876
C         5.95411460868999   -0.52692108145433    2.76822396869922
H         6.84805882372843   -0.68606409984231    3.37145658415548
C         5.29148785649475   -1.58730014836574    2.18154133077208
H         5.65119924647022   -2.59340464737278    2.32307982058347
C         4.16789901168920   -1.32304942595436    1.41070140985405
H         3.62938411348620   -2.12523534525195    0.93014057577384
C         3.74927098334981   -0.01338042849082    1.27074605193447
H         2.88455931997152    0.23755372539020    0.67674886129252
C         4.46235472943104    1.00575664032892    1.89713916059850
C         4.01339302098379    2.41066097891576    1.83627788681619
C         2.68502753231840    2.71285343984597    2.12656871116869
H         1.99622597051377    1.91422925845347    2.35953301704007
C         2.26350373274389    4.02878611016394    2.17651876057529
H         1.23730059038109    4.25127303975294    2.42580605377920
C         3.15629625116201    5.05670266802003    1.92439341690266
H         2.82735521505535    6.08387802529377    1.97477888346102
C         4.47126873866284    4.76533955658906    1.59895379717010
H         5.16210176167524    5.56447609501589    1.36683186793365
C         4.90981214764620    3.45018995288399    1.56090756636456
H         5.92123325086995    3.23700596012740    1.21420399512333
C         7.17284993485052    4.76090579349602    4.36392136550232
H         6.28125499050721    4.91594720444246    3.75605863348788
C         7.82348993489545    5.82384603206289    4.95911851778371
H         7.45654807425426    6.82764044597184    4.81985122498999
C         8.94405300697913    5.56492802434847    5.73619115954115
H         9.47275544283701    6.36909329659086    6.22425878629348
C         9.37221852126847    4.25804652672351    5.87259129140804
H        10.23505341390617    4.01125209130054    6.47102669946187
C         8.67105441680571    3.23593545768060    5.23739235590693
C         9.13199955958163    1.83487771048898    5.29446810456541
C        10.46507891231990    1.54715418458349    5.01112754525598
H        11.14758056654816    2.35375507789046    4.78723692570057
C        10.89968240879475    0.23574347108943    4.95610966843100
H        11.92951783797416    0.02467234809183    4.71190439133507
C        10.01523549655262   -0.80214540861023    5.19638260852770
H        10.35433164089863   -1.82578702179920    5.14179867264898
C         8.69549534414860   -0.52531346609002    5.51500575292407
H         8.01112217669446   -1.33260967898467    5.73788876008063
C         8.24394147631540    0.78521423037970    5.55791599128267
H         7.22782636938484    0.98645094373505    5.89865431371171

