83
CSD_code = GANNAM | q = 0 | S = 0 | Stoichiometry = C37H36CoN5O4 | MND = 6
Co       -0.74851463186264    1.89510682659667   10.71976927113045
O        -0.08323493417968    1.88302048310780    7.90345509762076
O        -1.22478283448949    2.01100980919456   13.45215133861650
O        -2.32907134370249    2.70562908952694    8.59914006405625
O         0.85087977703161    0.79647680282557   12.85079327741581
C        -2.84264029674925    2.85359186004618   12.08708601735627
N        -2.20747002017689    2.67792571029062    9.88937108691461
N        -1.68204065730516    2.29159015027257   12.27102611184895
N         0.27164134053509    1.52073348377527    9.14845571060864
C        -3.72877635131624    3.28290692321342   13.17746535098674
C        -2.97609946959215   -1.56282684540699    9.35076798978003
H        -3.42637926239120   -1.83159268876252    8.40846997548491
N        -1.72949842040702    0.03569836856754   10.60778151202205
C         2.95979806062495   -0.20940974035221    6.12074721447504
H         2.65473104594832   -0.69094900167252    5.20347971030505
C        -4.53092266687491    4.50290701617686    9.21393490482133
H        -3.61874177288019    4.87394813909028    8.77302904622725
C         2.85895790485919   -0.12577558151779   11.15890123349402
C         1.67492718510492    0.63569852329751   10.73555695564993
N         0.75349576073904    1.06339140876493   11.53886071421824
C         1.41836103251867    0.95176064344798    9.34226115854020
C        -4.32559268552613    4.54207850907870   13.13642140844117
H        -4.12054480672963    5.20412036991670   12.30839166201612
C        -2.30505227624400   -0.35840675384564    9.47372929566222
H        -2.24528502003595    0.31571971608494    8.62977868191926
C         3.73892825901901    1.02690832379695    8.47383467387505
H         4.03944045931180    1.52434926763891    9.38381913184225
C         4.33552344056139   -2.00397591042915   10.88100492108691
H         4.60656704750003   -2.90811376611552   10.35602148911473
C        -6.86795155112727    3.53501480410966   10.34166744533035
H        -7.77884009291803    3.15173610943672   10.77829527504974
C        -3.16448977649070    3.04820464761399   10.69114661566292
C         2.40416240621728    0.67168082199174    8.28827820017360
C         0.03719113098897    3.73748801392688   10.79057682438030
H         0.32577220734430    4.01094887474226    9.77064966474527
H        -0.74355252416989    4.43783500199575   11.10274343054433
C        -5.64679236260229    3.06082609842414   10.78024488681738
H        -5.60511831943502    2.30291182602878   11.54890440818649
C         3.21921507791741   -1.29195549245844   10.48658923384974
H         2.61544892038235   -1.64462986976980    9.66319136822280
C        -5.16465649195666    4.94774368365200   14.15581567038312
H        -5.62228985566631    5.92539650844991   14.11506388905579
C         2.02008803909668    0.05907453648309    7.09853213297514
H         0.98692478192060   -0.21287203696693    6.94561387140119
C        -3.97519622481509    2.44959151447029   14.26512271832149
H        -3.50694148643126    1.47839101560667   14.30993395172691
C        -4.46476793970066    3.54909956990994   10.22611984566305
C        -4.81779719863883    2.86077222660169   15.28111069028537
H        -5.00711617472869    2.20445367371715   16.11812545920731
C        -5.75610771222620    4.97420607569629    8.78091288375477
H        -5.79720144458768    5.71917949531907    7.99980536248692
C         3.62815479804303    0.30772220161854   12.23575107720753
H         3.35096532837823    1.20772206538440   12.76259314256826
C         4.74760797332748   -0.40620693888446   12.62031993343155
H         5.34306288044728   -0.05954613801129   13.45175291500995
C         4.67143156783161    0.76175961655858    7.48972375710381
H         5.70299093198340    1.04366429044586    7.64015879852505
C         4.28606022402934    0.13790443973519    6.31411985736207
H         5.01808741238635   -0.07309931102177    5.54870720601397
C        -6.92650718783573    4.49599512457911    9.34536292988148
H        -7.88294205599070    4.86687831806247    9.00697454288293
C        -5.41810158842640    4.10705024308380   15.22764272964787
H        -6.07773074260803    4.42556249755998   16.02153303109174
C        -2.46429094473741   -1.98887781197960   11.63297216931577
H        -2.50184981158087   -2.60065162831156   12.52028285816152
C         1.23227232697486    3.93192998368824   11.71015068032628
H         2.08567627325709    3.34181627242833   11.36748974051580
H         0.98530224354267    3.62481060684893   12.72853265124596
C         1.65205609418969    5.40671523829126   11.74237148475680
H         1.88711489539584    5.73717076724099   10.72780955972726
H         0.81747414889137    6.01073324347602   12.10451482915012
C        -3.05787518783653   -2.40065899909145   10.45092563549938
H        -3.57357894048533   -3.34726977478951   10.39001650937610
C         5.10493421197981   -1.56078257989649   11.94448980134718
H         5.97932292193146   -2.11733082590415   12.24766673640482
C        -1.81385328901735   -0.76749147275574   11.66620719825186
H        -1.34703632989813   -0.42993377357760   12.58131135597823
C         2.86246977449117    5.62364651128648   12.64193539011028
H         3.14661476060207    6.67361609922967   12.65511125938818
H         3.71189952597682    5.04333484537269   12.28691619206467
H         2.63876699017308    5.31515327125425   13.66078807257558
H         0.00720734395603    1.32118922807726   13.27068853273291
H        -1.05339382104262    2.30685615441644    8.03873058859322

