74
CSD_code = GANNIU | q = 0 | S = 0 | Stoichiometry = C32H32CrO5P2Si2 | MND = 6
C         5.90135502288107   10.07165516522643   14.71921104525592
C         7.25388792006542    9.78204507909683   14.59500448387072
H         7.64457961848143    8.87140142985376   15.02811449970375
C         8.09979885195726   10.65909037198258   13.93719828509274
H         9.15063030484312   10.42630199535535   13.84893945852606
C         7.60181255061964   11.83397731760221   13.40129894059645
H         8.26222197350359   12.52067079966301   12.89283915119985
C         6.25292714767264   12.13171632478320   13.52381395120722
H         5.86264496912628   13.05066925694625   13.11065199851661
C         5.40624809717963   11.25580811305670   14.17450190228338
H         4.35573574234755   11.49076582251936   14.27830524232169
C         3.79969851765057   10.08148808676523   16.55038338437186
C         4.45914589129081   11.07364838004419   17.27240683991510
H         5.52977062176184   11.18970274385837   17.16341585275390
C         3.75223896475156   11.89596514265354   18.12869977470945
H         4.26996824046492   12.66328187640979   18.68520161630547
C         2.38529435408684   11.72878077913496   18.28494625305597
H         1.83611704237687   12.36820806965787   18.95991374324203
C         1.72686453082300   10.73186055768813   17.58414714488336
H         0.66310259328065   10.59202357063732   17.71337615251290
C         2.42950754068143    9.90898558377110   16.72289107435557
H         1.92095429099531    9.12147345107810   16.18346881362798
C         4.61265693918106    7.99391969354452   12.38307187950163
H         4.12671628285498    7.38685519638767   11.62545874088761
H         5.45783395911119    7.43326361267774   12.77764598163762
H         5.01241120084707    8.87681313991837   11.89358341442234
C         2.18075752706725    9.83874604603628   13.22425115790881
H         1.80496289567986   10.43022574230197   14.05323691602361
H         1.33046596607610    9.37867650673158   12.73139960025396
H         2.65088277458070   10.51498593408438   12.51863223993983
C         1.06161334477569    6.43929079506033   16.62825977721591
H         0.22584583244604    7.03395699246243   16.27245387849398
H         1.59338410684363    7.01710264324241   17.38187413951086
H         0.65660209499738    5.56137905790130   17.12246205817094
C         1.48669429044598    4.55354062300802   14.11922082583879
H         2.24197084053432    3.99690351495200   13.57350526306514
H         0.80569212763873    4.98839554951613   13.39491898741254
H         0.92659115863691    3.84974719610999   14.72506796035796
C         3.59600897652885    4.33808690259099   17.48528609701151
C         3.05610523217765    3.12235984938334   17.06765511733439
H         3.03615338310306    2.88274752059791   16.01320686379086
C         2.56756834723824    2.22145892312618   17.99361771714844
H         2.15814631228607    1.27800633424696   17.66226952926185
C         2.60301649538259    2.52540757555382   19.34611632552256
H         2.22184737411423    1.81884366003426   20.06840742355020
C         3.13302572487341    3.73257303790850   19.76763689639505
H         3.16704118398310    3.97081172506613   20.82039642451845
C         3.62885584647886    4.63488201706886   18.84184755243651
H         4.05773474803040    5.57148439492984   19.17120220535279
C         5.07606207686055    4.40742495283328   15.12129636543290
C         5.94876788997348    3.45652279851061   15.64637329144000
H         6.03043804573832    3.34454501268778   16.72010134542349
C         6.71075596104188    2.67155405307891   14.80271017471869
H         7.38511416530550    1.93633495448797   15.21642136605017
C         6.62253028730522    2.83642944591058   13.42921496177059
H         7.22494973036242    2.22729094315536   12.77186827970295
C         5.77052603262247    3.79240587538657   12.90164151849375
H         5.70839746846626    3.93029595210723   11.83156528711118
C         5.00200035054368    4.57731711625140   13.74219948646399
H         4.34401150353971    5.33204393670350   13.33396793316341
C         6.88859748714639    8.48775851846899   17.65391408766174
C         6.96189485275270    6.62929897917996   15.76872114338469
C         6.53348995738833    6.05681823384537   18.12168554465671
C         4.60676102584190    7.85342100988752   18.35699577865456
Cr        5.70892721787141    7.24594599488755   16.99232887206742
O         2.49095411243661    7.20240437014725   14.21070824584328
O         7.64014635086960    9.19964184245238   18.17338092641955
O         7.83831919462103    6.18133938230460   15.16082870409072
O         7.15373011467222    5.37976671578445   18.82767217831364
O         4.07695972038839    8.28858204350302   19.28891409703003
P         4.76903529581179    8.90745506496089   15.55355393776186
P         4.21080006010086    5.53806291184878   16.25456631943460
Si        3.41364046789319    8.49215480812644   13.78165126089661
Si        2.23410087768016    5.92690098126785   15.21290431272749

