53
CSD_code = GANWUO | q = 0 | S = 0 | Stoichiometry = C24H22CrO6 | MND = 9
Cr        0.76982233627212    4.03892001349321    9.21219644513170
O        -2.28363508463917    0.37966443867715   10.80211414620968
O        -4.07667622539306    0.32050902095399    9.51497160514184
O        -1.88758043573217    3.03844757457904    7.41311129314342
O         2.59501058666531    6.35172330053860    9.63418979293028
O         3.40014241151465    2.68141411831341    8.93727107581353
O         1.55800669534847    4.68027815873556    6.41744499117781
C        -2.74357039368487    0.32054930855705    9.69686742572606
C        -1.91717792444356    0.25681186700129    8.42405671586332
H        -2.42164903278566    0.83825043841587    7.64395537856374
C        -0.54250656885242    0.91530501212359    8.68076002060193
H         0.02361013480647    0.28355845723412    9.37370571372370
C         0.20775991502597    1.05056523118222    7.44410587333667
C         0.82960370241281    1.23214437777975    6.43029542254713
C         1.58401646226715    1.44715863724770    5.25343586813636
C         1.04997669825325    1.14369360805611    4.00193493544530
H         0.05356307523695    0.73010357296183    3.93327576662375
C         1.79452618064899    1.37377675488028    2.86080032718417
H         1.37864840100542    1.13840591370239    1.89148430966276
C         3.06969262380220    1.90693564805590    2.95730115527339
H         3.64726763959532    2.08793127600428    2.06267696068818
C         3.60254863899577    2.20941260505325    4.20077536836070
H         4.59515265236733    2.62778284808392    4.27554777609098
C         2.86912272482655    1.98151786597339    5.34868488756168
H         3.27338647045746    2.21907790191302    6.32089318302585
C        -0.68286111084427    2.28711075914297    9.30884580547762
C        -0.16870341864995    2.52541808051320   10.59739617849156
H         0.24871709073446    1.69407400384703   11.15274163674668
C        -0.30426097619028    3.77001048075419   11.21415916748765
H         0.01994661424492    3.91463039830731   12.23623236583463
C        -0.91270303794542    4.81959101775922   10.50843080702413
H        -1.06684563184671    5.77783561829478   10.99056787390039
C        -1.44048576193919    4.60522993295967    9.23173022902506
H        -1.99255299272900    5.39592136852785    8.74106017944946
C        -1.33178978854749    3.33583688558980    8.62396766213099
C        -2.13658570141140    4.09386974015311    6.50725834400037
H        -2.33365441223099    3.61461095713840    5.54986879951245
H        -1.26275658704506    4.74373390020151    6.41238078538261
H        -3.01224654601720    4.68170706699315    6.80150609335795
C         1.85754533468759    5.46984372755202    9.51018370295688
C         2.36574492549108    3.17545502170389    9.08981977796514
C         1.21091531657293    4.41964826699877    7.49126243512330
C        -1.76206877999948   -1.19636001234258    7.91258354564975
C        -1.29221752231725   -2.15600870936759    9.00355419721940
H        -1.19634000181523   -3.15851747223884    8.59307056346469
H        -2.00276667163864   -2.18939496491965    9.82674119826917
H        -0.32380298058294   -1.86454560749888    9.40017046490541
C        -3.06416424683934   -1.71131989953467    7.29690265711789
H        -2.88475786036583   -2.66688065408076    6.80956007875758
H        -3.44555925758182   -1.02211158701311    6.54448590253722
H        -3.82474571355368   -1.87146725289861    8.05942023369859
H        -1.00089213013538   -1.16122348114853    7.12415983536320
H        -4.32066983551306    0.26416446510861    8.58128304125706

