44
CSD_code = GANYAX | q = 0 | S = 0 | Stoichiometry = C19H16Cl4N2NiO2 | MND = 4
C         5.91194264337389    3.14935199414812   -2.66013871265443
C         4.99145424069949    3.20649641186525   -3.75428110821158
C         5.32956478777331    3.74102352929668   -4.96864748093294
H         4.61127827436872    3.75520520292217   -5.77257498654385
C         6.61120408053435    4.27337089369245   -5.16093048097880
C         7.53264475378214    4.26624479641392   -4.14931547748268
H         8.51652345698577    4.68170682593975   -4.30339305407018
C         7.20777138124774    3.70449021078749   -2.90017673696416
C         8.14696552281457    3.75257767889157   -1.83696078630400
H         9.03211492531612    4.36744893118085   -2.01651520057999
C         9.01166782406285    3.49081998913222    0.33522632541264
H         8.47556869456226    3.88047113122498    1.20826178512729
H         9.69155187056083    4.27487337289075   -0.02157811640704
C         9.85208892581296    2.27153157076657    0.77252748719921
C        10.39537438690170    2.53476904898357    2.17817814566098
H         9.58309491041425    2.57676947243623    2.90059579223207
H        10.93088287678468    3.48058675473362    2.20854365794018
H        11.08329756668324    1.74598563787078    2.47328855158807
C        11.00792269662838    2.06335997013606   -0.20782228363473
H        11.70562287999883    2.89568173927633   -0.15508340704353
H        10.63556415619733    1.98515162934166   -1.22697659046609
H        11.54953273645262    1.15114408505565    0.03056589869620
C         8.98006778104415    0.99689248955880    0.78119113757087
H         8.95971673966754    0.57718027987533   -0.23123686111873
H         9.44694965377386    0.25723863676743    1.44391014986828
C         7.18544530561087    0.66518950460154    2.26682043692672
H         7.90798429063829    0.11599602570115    2.87484471510715
C         5.84393156998971    0.63426713660646    2.73022363682228
C         5.55098896942491    0.09753748040010    3.99798171087457
H         6.35866943078893   -0.23085134109596    4.63367941663943
C         4.25341903296020    0.00528206776739    4.42273147301566
C         3.19775221488679    0.42208527370346    3.60142196257228
H         2.17928214747808    0.33897030284296    3.94534408093909
C         3.46439738717620    0.93119765721322    2.35860201867055
C         4.79818621401379    1.07752070058835    1.86126896633017
Cl        3.42260090975984    2.55077551560928   -3.49656475173268
Cl        7.01146414119791    4.94882616299053   -6.70148877623559
Cl        3.89040720339191   -0.63815289914441    5.98613820921008
Cl        2.18260617796083    1.44449563101312    1.33350214134753
N         8.02384986050355    3.17950776223711   -0.68423474211545
N         7.60389382564647    1.23453726161919    1.18391668384054
Ni        6.56194256503350    2.15420835261305   -0.08392945245207
O         5.54584736417360    2.64771616871748   -1.54952091380290
O         4.99196362292312    1.55341895282757    0.69710553613966

