59
CSD_code = GAPBII | q = 0 | S = 0 | Stoichiometry = C22H30As2O2PdS2 | MND = 4
Pd        0.00024531356704   -0.00053640328310   -0.00070325010896
S        -0.08429695958902    2.15387025693858   -0.85492245756430
C         1.18427054187833    3.12234454481657    0.03734758210671
C         2.45154202901624    2.31790552149536    0.25950671959962
As        1.94108089340187    0.62166125888226    1.13347482107429
C         1.94653903126739    1.19557201827679    3.01527854889633
C         3.64382305369580   -0.31347867126481    1.10737163828090
C         4.52829728126215   -0.02862231906336    2.11497239136714
C         5.77174878877219   -0.59431578016715    2.21908038043633
C         6.14638884520715   -1.51337970430907    1.24385434397488
C         5.28291162657662   -1.81290366293947    0.20565948289777
C         4.02935124471254   -1.22382051451834    0.11662753940309
C         3.08742973525935   -1.57238603220116   -1.00063027605218
O         2.43951691174486   -0.40081311559501   -1.45464244600722
C         1.55444695421335   -0.65334195668265   -2.52127515538150
H         6.44709080433709   -0.34653932066507    3.02550011672643
H         7.11664327636639   -1.98684139202584    1.29657500217142
H         5.58687529835192   -2.52323424436981   -0.55103096453294
H         0.75000098164765    3.44619621993441    0.99156290105390
H         1.35883626308133    4.00505771485932   -0.58268247886842
H         3.17462641521377    2.87276203713805    0.87162924885152
H         2.91349502546065    2.07529247901105   -0.70344334195267
H         2.97799462010487    1.43448938093417    3.29077529865043
H         1.31114706942965    2.07017983659822    3.16894885404119
H         1.58968510815412    0.38317158085738    3.65207046881085
H         3.63717171550738   -2.04243626410295   -1.83170109710517
H         2.33284972638945   -2.29077220794820   -0.62445529236376
H         2.10691085985894   -0.97448018072376   -3.41581028425097
H         0.82917455265629   -1.44619694389963   -2.24875621526543
H         1.02717113901654    0.28605460260851   -2.73011575119918
S         0.08472543896371   -2.15382866673636    0.85536954167970
As       -1.94123299077665   -0.62177410066501   -1.13338897193561
C        -1.18401596074646   -3.12207100330426   -0.03697332032156
C        -2.45145542998589   -2.31789021503337   -0.25920212529465
C        -1.94645674956456   -1.19573473390479   -3.01518683987413
C        -3.64385368093057    0.31350044059657   -1.10747303895401
H        -0.74985330309017   -3.44610271573841   -0.99116398426357
H        -1.35865773690642   -4.00476401122984    0.58305304092090
H        -3.17455181746891   -2.87269175833796   -0.87135431202413
H        -2.91338237565875   -2.07507058071324    0.70369072838408
H        -2.97793409499376   -1.43467040914866   -3.29055412368986
H        -1.31114208174001   -2.07042165073138   -3.16870268567733
H        -1.58960178274932   -0.38350852854869   -3.65220130365824
C        -4.52834443404877    0.02841175900651   -2.11496604780064
C        -4.02938262644242    1.22392992612933   -0.11682340435988
C        -5.77183615757405    0.59397355368442   -2.21909957409016
C        -5.28297911053500    1.81291246960001   -0.20588844137445
C        -3.08740474096808    1.57261446866369    1.00035064188469
C        -6.14647912729677    1.51317562584063   -1.24400336266822
H        -6.44717908571636    0.34603978253348   -3.02546740482607
H        -5.58695850065082    2.52334565616102    0.55070266084754
O        -2.43978956303877    0.40101153252652    1.45467040548208
H        -3.63703895396714    2.04298927043270    1.83128780203331
H        -2.33266236955645    2.29071781736486    0.62399260402491
H        -7.11675647690446    1.98658183673436   -1.29677900459079
C        -1.55472138550116    0.65357039779880    2.52130696293751
H        -2.10716323938232    0.97497872123867    3.41576522134066
H        -0.82923556079577    1.44622459246135    2.24865708592285
H        -1.02762424853563   -0.28590821526896    2.73031492225763

