38
CSD_code = GAPCUX | q = 0 | S = 0 | Stoichiometry = C15H14BrClNO5V | MND = 6
Br       -0.00493138258107    4.20168908206428    9.21904111607174
V         3.28053524914752   10.05571870106203   12.09398409081109
Cl        7.76947385160875   10.13984830721019    6.89698951549963
O         2.70122093689794    8.44267975452671   12.46742739594264
O         4.70186637190835   11.13806782827798   11.72265229923989
O         5.38541194690480    8.69820796589800   13.08176796080388
H         4.89709593063065    8.46895001413722   13.88333846476785
O         3.20042492205947   10.67385490823247   13.59649070321317
O         2.18672141518716   10.64919588526173   11.20953120842367
N         4.08914951748674    9.09456680066009   10.39173176435030
C         2.11446644176332    7.54088967764217   11.74864559224537
C         1.11632305590383    6.71848590287480   12.30894912402896
H         0.84371229760914    6.88202947688535   13.34154951814440
C         0.49242389530475    5.74526976910823   11.56600074970049
H        -0.27650519773985    5.12827871312886   12.00568214036314
C         0.85927988110237    5.55603416284546   10.23517532250819
C         1.83634660874670    6.32523489577901    9.65026743910978
H         2.11116267059380    6.16541191766483    8.61778422686947
C         2.47748075918527    7.33003168790514   10.38763217599456
C         3.51492337332398    8.11098303848692    9.79103149527682
H         3.80829583549467    7.83365274167569    8.77467604448891
C         5.10770578570082    9.83863528964479    9.84640169802369
C         5.85351978920406    9.56979385233919    8.69752881700297
H         5.68766693848151    8.67794178322004    8.11295959757605
C         6.83403714744596   10.46391318079743    8.31581832745357
C         7.08840726968624   11.62070011628123    9.04861319701647
H         7.85895582662835   12.29993713674462    8.71883122058020
C         6.36855950476581   11.88807271207428   10.19280120923202
H         6.56490825272302   12.77549088588338   10.77486250098968
C         5.37702510393876   10.99337834899677   10.62743712992877
C         6.55371508397977    9.39875755949176   13.46181060976195
H         7.17124021161909    8.78965130186885   14.13157902690975
H         6.31208489936435   10.34912165180168   13.94872817572144
H         7.11258509498443    9.60214521062514   12.54867567910063
C         2.72773652251727   11.66696161159805   14.40287884858631
H         2.79194647907633   11.37838939660711   15.46309022347766
H         1.68259519514922   11.89677530397023   14.14165611797392
H         3.33673251419871   12.57175342672650   14.24277927281045

