173
CSD_code = GAPJAI | q = 0 | S = 0 | Stoichiometry = C76H92N4Zn | MND = 4
Zn       -2.38565258054196    0.76056017336061   11.32434597109775
N        -3.26091745425205    2.41456205933043   10.54230371400900
C        -3.16737761884120    2.85054608094989    9.25662857563046
C        -4.02696367481513    3.98454368358693    9.06284524285388
C        -4.62492408094487    4.22989959990203   10.25204629943316
C        -4.13520158358135    3.24387376004127   11.17409405782774
C        -4.53986128919756    3.14809367750297   12.50455420026218
N        -3.32493411675235    1.09611654954114   13.08687739593181
C        -4.13616687998876    2.14666749283199   13.38637743987347
C        -4.51777549830186    2.08869640804553   14.76945281887110
C        -3.94009298748442    0.98006278237402   15.28846221382854
C        -3.20142504348467    0.36020391900148   14.22446978083911
C        -2.45603289506551   -0.80926021313073   14.36873959617079
N        -1.48087848513162   -0.87191617936489   12.11779030547362
C        -1.66737020494309   -1.37511615044213   13.36834612164166
C        -0.94508593786496   -2.60819603301555   13.51013396531517
C        -0.31248972210781   -2.82845046334531   12.33401851654040
C        -0.65028826635989   -1.73268172368717   11.46944111148317
C        -0.21002579317994   -1.61153475316934   10.15228995159780
N        -1.48420127936385    0.39741904581158    9.54754887253183
C        -0.59908854166687   -0.59971545215229    9.27571661357648
C        -0.09990607567854   -0.45632302383702    7.93696992263264
C        -0.71198204108712    0.62756005434848    7.40521838039304
C        -1.58314069268880    1.15139167323979    8.41939683185587
C        -2.38207212493434    2.28216313862712    8.25505208049292
C        -5.47950754143066    4.17017879345165   13.01344246193728
C        -5.10312595520674    5.50620036858416   13.09837740406899
C        -5.98572738141337    6.45472597786623   13.58085812249386
C        -7.26871090533008    6.09956851841363   13.97634351357180
C        -7.64360717794001    4.76413038986034   13.88512241698807
C        -6.76226771406533    3.81013708625912   13.41544863050492
C        -8.21903571072545    7.11809309809375   14.53441785153527
C        -8.22209449134859    7.07108276863369   16.06718278470017
C        -9.19826176165143    8.08409688676729   16.65944839007066
C        -9.18973338530651    8.10761705733407   18.18843034319293
C        -9.74174102231185    6.82527110306286   18.81001563441522
C        -9.98239559276536    6.94235412220216   20.31537855185539
C        -8.69710047751747    7.09618488778592   21.12578699550717
C        -8.97566303871247    7.09159793414514   22.62411499505772
C        -2.52120715904867   -1.50345643236632   15.67255288191590
C        -3.72618187675504   -2.03463537032775   16.12307375704464
C        -3.79312835729017   -2.69243813952277   17.33550629825975
C        -2.66521889946732   -2.83106686500552   18.13589739836109
C        -1.46602031459264   -2.29273812195103   17.68779810201509
C        -1.39029256888432   -1.64298575881316   16.46971322005077
C        -2.76266870583886   -3.50558895191277   19.47283599671771
C        -3.28768746171471   -2.52940298183386   20.53234683821106
C        -3.44227010015100   -3.19714887727880   21.89574345776261
C        -3.98687694106561   -2.23312031113649   22.94689000954376
C        -4.16531770956566   -2.90719301160086   24.30508713446605
C        -4.72805219237113   -1.94989752385538   25.35266959610939
C        -4.91120404401306   -2.62495029937777   26.70979432045238
C        -5.48718193823593   -1.66848739629719   27.74672951288913
C         0.72363273919005   -2.63875894191091    9.64306392695433
C         1.99418482065832   -2.77992009547938   10.19086304203520
C         2.86440477074632   -3.73909013700739    9.70744286743837
C         2.48678680834874   -4.59041449028360    8.67717707624803
C         1.21462295275304   -4.45009455753632    8.13509630236644
C         0.34479527272861   -3.48613034115094    8.60627512526395
C         3.44188515492160   -5.60584242738156    8.12180347149040
C         4.13104094598385   -5.06199898953720    6.86452550179558
C         5.09617132192207   -6.08081981896222    6.26434411732223
C         5.84499913923368   -5.55494265317451    5.03923592932832
C         4.94426546595324   -5.34280947547023    3.82414899913179
C         5.74231928042718   -4.93199484186267    2.58907817602733
C         4.84563263595688   -4.71185425006648    1.37300955417755
C         5.64645670053755   -4.30291309510517    0.14297142191420
C        -2.40744681882469    2.91170735353860    6.91730431674652
C        -1.93341850326107    4.20434022354800    6.72219842200935
C        -1.96289066890686    4.78064624633688    5.46565022992194
C        -2.47757890681133    4.09037089766808    4.37613169259979
C        -2.95299630890626    2.79936370133646    4.57506634691548
C        -2.91511185655273    2.21402697347530    5.82524600172105
C        -2.48329265236874    4.69588204574350    3.00301197687258
C        -1.28620309455504    4.19503884749389    2.18627341308077
C        -1.29378064354223    4.74974897670302    0.76467084717918
C        -0.11759786023566    4.23005212869424   -0.05834332714496
C        -0.13952816909094    4.76114039125355   -1.48956455902322
C         1.02814872350299    4.23004594488795   -2.31722315643857
C         1.00087630652847    4.75042628264994   -3.75229493041038
C         2.16570108954582    4.21168028986903   -4.57372501498288
H        -4.16139514026810    4.50562688237649    8.13509671620629
H        -5.34365520900905    4.99066883595933   10.48672279211763
H        -5.13087813549142    2.81172285550187   15.27116531326908
H        -3.98814348929615    0.61970032790556   16.29756017235136
H        -0.94177300984617   -3.22413197642300   14.38814934550706
H         0.30884711888686   -3.65954683360754   12.06269265881547
H         0.63202034858628   -1.09321821012993    7.47979574107843
H        -0.57836861853567    1.05021585962561    6.42849328446219
H        -4.10764088554337    5.79565081513363   12.79388981630006
H        -5.67490118993869    7.48793691620997   13.64762021704475
H        -8.64042556616797    4.47059546550701   14.18301147043565
H        -7.06736121599791    2.77606306156843   13.34397298339348
H        -7.93092139722390    8.11845630480665   14.20485351173756
H        -9.23035211242943    6.91849789505544   14.17205897587295
H        -7.21364028419188    7.27762165655074   16.43353538649574
H        -8.49190217585212    6.06342318988542   16.38656614625764
H        -8.93635567902310    9.07982277873186   16.29193886137072
H       -10.20866440291055    7.85981333991809   16.30812140437246
H        -9.79989293007042    8.94946211325753   18.52573727143862
H        -8.16866233831438    8.27695800886536   18.53445569896041
H       -10.69087086561718    6.58280469994632   18.32478260796726
H        -9.05322703359286    5.99862626467259   18.62594347618253
H       -10.50328984205623    6.04362867699822   20.65609829055158
H       -10.63660342544637    7.79534682489959   20.51210492120046
H        -8.01749636088719    6.27652985939737   20.88087360528370
H        -8.20242056356902    8.03112903877102   20.85795067861190
H        -8.05201864151437    7.20628670084866   23.18688367450059
H        -9.44552461966454    6.15681931746482   22.92304085294222
H        -9.64298957359650    7.90874500827443   22.88997070747433
H        -4.60865270705776   -1.93847682927006   15.50705372497491
H        -4.73402529499718   -3.10909698557295   17.66658854926453
H        -0.57907389333698   -2.38697407545174   18.29856722216518
H        -0.45128141429550   -1.22747834952574   16.13339942136958
H        -1.78182373202185   -3.87483497431858   19.77896244047558
H        -3.44273444046810   -4.35823641638489   19.40818999523392
H        -2.59981550057354   -1.68444240922213   20.61293681830740
H        -4.25421693917695   -2.13675163309951   20.20802695818207
H        -2.47327462611950   -3.58075033656176   22.22414379253525
H        -4.11999360627198   -4.04969768752689   21.80472567078764
H        -3.30394926702446   -1.38648157561838   23.04973126771301
H        -4.94941184385963   -1.84011970302008   22.61058364419397
H        -3.20136689158648   -3.29147605918408   24.64736760106184
H        -4.83992226411682   -3.76023630599509   24.19790290312723
H        -5.69158994037790   -1.56560809669564   25.00915258446476
H        -4.05371087331477   -1.09714352935287   25.46234971497450
H        -3.94638912585465   -3.00052700087607   27.05860072494596
H        -5.57827730332596   -3.48297128164257   26.59798081614402
H        -5.60710111281024   -2.16829820362548   28.70519423653022
H        -6.46003602786883   -1.30076460188205   27.42733045746018
H        -4.82819971130091   -0.81397064726762   27.88517170685148
H         2.30029796642652   -2.12335068266929   10.99253572571721
H         3.85115755637970   -3.83104907449857   10.13922977756716
H         0.90206232019217   -5.10771357401949    7.33608000202176
H        -0.64394263501984   -3.39124359649522    8.18095974863870
H         4.19846826648286   -5.85586168909411    8.86840398957181
H         2.90280897502422   -6.52031810101257    7.86346428949477
H         4.67550446704679   -4.15022287879926    7.12144724351367
H         3.36568772528390   -4.79720735910196    6.13354039088141
H         5.82655362489294   -6.36292568982000    7.02715212771573
H         4.54432074936589   -6.98277297074623    5.98827510393435
H         6.62543556460914   -6.27262966157677    4.77351985038949
H         6.33718838197515   -4.61331322755587    5.29374796510022
H         4.40338064660059   -6.26832207609272    3.61142617987435
H         4.20641734736384   -4.56847456384357    4.04100923470283
H         6.47753399556179   -5.70686767781020    2.35834497221663
H         6.29038445639734   -4.01133640990807    2.80373219106508
H         4.11175385942413   -3.93570551923913    1.60238518768807
H         4.29692481783615   -5.63209797939176    1.15896470789336
H         4.98919857956716   -4.15224338068293   -0.71038939819292
H         6.37110859414133   -5.07273463383245   -0.11361137830189
H         6.18481250172974   -3.37607364219361    0.32943486967061
H        -1.52990592481430    4.75226271791064    7.56151219206292
H        -1.58444214463480    5.78408736771326    5.32974212540498
H        -3.36136806439069    2.24899179947298    3.73911675773355
H        -3.29286214512751    1.21187026371522    5.96828334983765
H        -2.44082992219731    5.78462020363236    3.07297876345534
H        -3.40520896561208    4.42378456990521    2.48351877680628
H        -0.36164547355299    4.48698831105358    2.68979524391583
H        -1.31038521775993    3.10342981393817    2.15030598474544
H        -1.25657562224684    5.84120449868536    0.80024534376250
H        -2.22838421575353    4.46817705192143    0.27306171301596
H         0.81838082124437    4.52388943639641    0.42264456152738
H        -0.14775898501083    3.13794006602767   -0.07923906412049
H        -0.10215203607055    5.85304356508955   -1.47080192353386
H        -1.07946922312888    4.47253483495318   -1.96649968776813
H         1.96871664335124    4.52398434899953   -1.84513301700411
H         0.99346983934708    3.13794035771719   -2.33010415175403
H         1.03916091426058    5.84218582768187   -3.74062620036957
H         0.05933513283317    4.45838231669974   -4.22330699830927
H         2.12703408136520    4.59357777837231   -5.59132369313474
H         2.13364750344602    3.12492153945924   -4.61348924157959
H         3.11409564465504    4.50894749739839   -4.13124481922123

