64
CSD_code = GAPMIT | q = 0 | S = 0 | Stoichiometry = C33H24CoN3O3 | MND = 6
Co        4.39764959160394    1.73506691754738   -0.01783496045562
O         4.78352782314631    1.93320300833929   -1.87355553860723
N         3.86933534581619   -0.10746268870426   -0.37107732194264
C         4.10966311920371   -1.02961370971832    0.56427117911019
C         3.83975047385483   -2.37191879105053    0.40953754644013
C         3.30673244829155   -2.80050376875069   -0.80098718096551
C         3.05585314725418   -1.86049103120251   -1.77184803735945
C         3.32101071997577   -0.49874077486329   -1.54139225606231
C         3.05701264595479    0.45835057311793   -2.60123867882388
C         2.04246176379655    0.23082528619632   -3.53714475866314
C         1.85683684570327    1.06502195377438   -4.61434159117660
C         2.72127320349053    2.14192490942642   -4.80467654583566
C         3.71119762074172    2.40781772003722   -3.89507325067864
C         3.88033820503698    1.61417753014884   -2.73697405750489
O         4.99811518655649    3.47782326089854    0.25132677339920
N         2.62468845109407    2.41504859968739   -0.31283688101423
C         1.59255464166641    1.69619645209228    0.13075342364982
C         0.27511161897913    2.04859505454963   -0.05936798436491
C         0.00316231667829    3.24097373304375   -0.72073624327064
C         1.06058429910607    4.01503535342890   -1.12923276654083
C         2.38789927086253    3.59083582390290   -0.93003756949293
C         3.47769359439563    4.46625841968351   -1.31187517049720
C         3.31317928103548    5.43979664265777   -2.30470600071872
C         4.29227481609149    6.36529319465502   -2.57733867057953
C         5.47111969363515    6.35497115056190   -1.83331015706938
C         5.68147306919824    5.39105404505168   -0.88240039463641
C         4.72203488216547    4.38504494601538   -0.62195337391376
O         3.94293370598832    1.57727545029937    1.80007669116780
N         6.20260281092888    1.16810569780927    0.36870885845474
C         6.88074164196433    0.51756474373488   -0.57677549046791
C         8.16556177740116    0.04487266200232   -0.41704557874409
C         8.78306242652843    0.23225163645150    0.81351670098793
C         8.09402246924452    0.90727062727984    1.79172824918228
C         6.80089668222537    1.41102815586599    1.55305824867493
C         6.11868123919919    2.12265070144390    2.61994476457170
C         6.84719898133508    2.78667712842846    3.61391813643213
C         6.23057552377390    3.37457853912200    4.69353174012077
C         4.84564928464444    3.29831384670452    4.81799143595504
C         4.09814908479043    2.68983603925272    3.84284942449857
C         4.69810472365151    2.12288683086094    2.69700898399984
H         4.51791113880626   -0.66426091993898    1.49552425323851
H         4.04997647310899   -3.06267320185152    1.20969565618706
H         3.10261313596782   -3.84585475542470   -0.97832734315855
H         2.67441253580850   -2.16139726002521   -2.73380761946663
H         1.36487028447421   -0.59862560449570   -3.39010988267994
H         1.05212529482717    0.88352810452678   -5.31046421106093
H         2.59724451037970    2.78315323161657   -5.66570335549892
H         4.37043559075264    3.25449882264773   -4.01122603712896
H         1.83447293453403    0.79846204782809    0.67939086846289
H        -0.51470334434412    1.41451732591835    0.30954120657122
H        -1.01392200451174    3.56362778118343   -0.88672684079441
H         0.88219652824285    4.97452565007011   -1.58494563474443
H         2.41144748632185    5.44147467533735   -2.90005998619938
H         4.14981989380409    7.09402200084923   -3.36105633584145
H         6.23503688743701    7.09457746220578   -2.02782390836967
H         6.60248914938031    5.34813007247687   -0.32099153938276
H         6.37334093219571    0.38371465338504   -1.52092967396821
H         8.66112849341556   -0.46412253498872   -1.22761605326154
H         9.77652424935455   -0.14790598894730    1.00029962894079
H         8.53486153249353    1.03964812441037    2.76597073697474
H         7.91960321553741    2.87483496637820    3.51695300980257
H         6.81553338751867    3.89429064916210    5.43722828478702
H         4.35670107073207    3.74264220675771    5.67345500123677
H         3.02076619675218    2.65059662113565    3.90676807809577

