43
CSD_code = GAPMOZ | q = 0 | S = 0 | Stoichiometry = C22H16N2O2Pd | MND = 4
Pd       -0.00004811007163    0.00020722951509   -0.00085783508454
O        -1.95591640130574    0.49501128507817   -0.23946512581395
N         0.33184764879333    1.90310225820371    0.44244883785645
C         1.40155305670066    2.51084270496120   -0.07121680613910
C         1.67626712212077    3.84724771350986    0.14700290111002
C         0.78747329225543    4.58502561375700    0.92001825794038
C        -0.33009227019690    3.96080616094993    1.43035635017586
C        -0.54755561669205    2.59596437108161    1.18903616023825
C        -2.41114601989162    0.94245099600688    0.89212431319439
C        -3.66912956166907    0.48728322960598    1.35281704312283
C        -4.21010119171013    0.91760814409899    2.53864821720908
C        -3.53068794427085    1.83901898486973    3.32934161267215
C        -2.33132160682048    2.35047626392452    2.88700464886997
C        -1.75540863122694    1.93985531375496    1.68232816509246
H         2.06733767615781    1.89560203309622   -0.67033687501928
H         2.55664573894582    4.29944123717089   -0.27974278557668
H         0.96116303288177    5.63422548144234    1.10670372238112
H        -1.05707414653453    4.51857798448319    1.99821163807936
H        -4.19151426670366   -0.22675607759939    0.73186671234220
H        -5.16463174293717    0.52955370524859    2.86464039635155
H        -3.94265093079360    2.15583009738209    4.27494715390870
H        -1.80204720759497    3.06556885420447    3.50104996504110
O         1.95564002585207   -0.49481699414581    0.23930297105961
N        -0.33163582168910   -1.90319910223967   -0.44218731248267
C         2.41113366047910   -0.94250667878589   -0.89207594656927
C        -1.40143905570438   -2.51086996067207    0.07137948993219
C         0.54763574288591   -2.59604465940355   -1.18892477384012
C         3.66909462196614   -0.48727553374651   -1.35277150643444
C         1.75545299906508   -1.93993812052852   -1.68226587261276
C        -1.67627692041954   -3.84722966232859   -0.14699917837091
H        -2.06728602743525   -1.89557329536429    0.67037355782491
C         0.33006549070130   -3.96083593212500   -1.43038286140101
C         4.21010756284828   -0.91763456758578   -2.53857460627611
H         4.19141571623802    0.22684185971715   -0.73186172013187
C         2.33135580982252   -2.35053347786821   -2.88695590827902
C        -0.78751282963415   -4.58502324522038   -0.92004432436317
H        -2.55665230698097   -4.29941546025323    0.27976047774049
H         1.05704518056091   -4.51861788126371   -1.99822972526886
C         3.53070983043565   -1.83904944297508   -3.32928599437147
H         5.16461566671246   -0.52953855293817   -2.86458051430557
H         1.80208836195326   -3.06562242425165   -3.50101012489674
H        -0.96118156910231   -5.63423550358970   -1.10667303919950
H         3.94266194200808   -2.15582494917692   -4.27491975570562

