26
CSD_code = GAPPUI | q = 0 | S = 0 | Stoichiometry = C10H10FeO3S2 | MND = 8
Fe        2.05603847630360    3.04821017348855    7.96705949314479
S         0.46216054640663    4.31976825444064    8.97337394898238
S        -0.44567942923095    4.98590632132245   11.68456666730422
C         0.57353509048645    4.19744593719864   10.68015083358877
O         1.57252150195747    3.39983868238667   11.06554436213749
C         1.77100693859350    3.21543845422510   12.46904931838508
C         2.96920275097145    2.30668874263717   12.66354581742009
C         3.34618381748794    3.53861677740470    9.04341824285035
O         4.22907586117199    3.80064489655521    9.71709550647065
C         1.82821803929557    1.66644806636961    9.01726373131692
O         1.74309995036385    0.73793352200775    9.67508647133713
C         1.10501655857535    2.37279447461175    6.02100286236893
C         1.17838888806980    3.78275026676428    5.96104535988136
C         2.53733561466042    4.16133030195150    6.05050697272965
C         3.31349491642698    2.97895846504049    6.13341863107562
C         2.42724435845122    1.87214780296737    6.11600106146397
H         0.86131211808816    2.77884384260400   12.89777261401476
H         1.93004372910406    4.19565030616564   12.93355201773904
H         3.85633008022426    2.75721663279970   12.22681568046706
H         2.79326891347527    1.34684532617406   12.18543738350737
H         3.13482615650372    2.15083472777782   13.72532780246693
H         0.21590174209009    1.78332139823803    5.87747478211567
H         0.34579446465119    4.45191292507148    5.82171500828798
H         2.91998251788271    5.16045893195177    5.93256521611667
H         4.38948582996634    2.92534687289015    6.08729817781192
H         2.71561056802279    0.83494789695580    6.05371203701544

