66
CSD_code = GAPZIG | q = 1 | S = 0 | Stoichiometry = C27H36OPRu(1+) | MND = 9
Ru        1.93000864628638    3.51850105181424    1.12235008350401
P         3.36538849409881    1.93333367848961    0.32829343754405
C         0.29153408005886    5.16141495347608    1.21345487564604
C         1.33764774259207    5.44186372876924    2.11704432188247
C         2.68704165585283    5.57578117787749    1.63713361749154
C         2.96063532539248    5.45219169969375    0.26254383971293
C         1.95365467763140    4.91663337478077   -0.60402258720508
C         0.61247752516581    4.77018742852799   -0.13120868142667
C        -1.15126597603380    5.32085811180462    1.61254820771226
C         1.03400525091914    5.75151873895344    3.55894930379390
C         3.76913578687824    6.01159931485170    2.58807706088431
C         4.24905469332186    5.97110805995649   -0.31930602923713
C         2.25761868275412    4.68932462944366   -2.06122967505226
C        -0.50050226034769    4.41183262324297   -1.07793198308282
C         1.52507983784006    0.46666068612207   -1.14639074437362
C         1.11052164010672   -0.60502946750481   -1.91810199411741
C         1.99532026803572   -1.63022786056236   -2.20971501558245
C         3.29688414548948   -1.58571768346452   -1.73221121939172
C         3.71862295982859   -0.51623366350558   -0.96518572490855
C         2.82768278637417    0.51227883273914   -0.66577761961625
C         4.86242215976260    2.41074148344444   -1.95191667655056
C         5.97177179074757    2.81836426346845   -2.66941879023929
C         7.10859464659597    3.25215113232060   -2.00531746435144
C         7.13052804371145    3.27892658505864   -0.62047123395859
C         6.01984222668583    2.87660203829166    0.10179351771841
C         4.88000509019855    2.42593153270082   -0.55824977504072
C         3.99736790014821    1.10366948556723    1.87564903320062
C         3.96234670442395    2.11931894263672    3.01843577483750
O         2.70197650211781    2.77099539618382    3.13500660393097
C         1.76159035551330    2.03107171480784    3.90748300005968
H        -1.25609024829475    6.05220325428774    2.40923922510002
H        -1.58246985436141    4.37835409253498    1.94913478006408
H        -1.73376295434063    5.67302204011686    0.76504330925762
H         1.79245745464367    5.34129409125427    4.22259086024453
H         0.07618178720328    5.33949727235122    3.86395347253591
H         1.01169010925685    6.83245397403733    3.70946834145646
H         3.68748865375463    5.49638345673957    3.54330260686915
H         3.69048621326797    7.08248979317043    2.78322524721154
H         4.75805899569469    5.80470954420029    2.18764492941162
H         4.06196607973423    6.40261591749521   -1.29990789768000
H         5.00211202027080    5.19105825032042   -0.43234292108593
H         4.66259305869893    6.75711538922381    0.30701396116042
H         3.32561618288547    4.61065481487788   -2.23971759949355
H         1.86048438832954    5.51302997540354   -2.65645229455171
H         1.79877275808692    3.76712095047936   -2.41284455876812
H        -0.15268750712869    3.76656725476402   -1.87871759229087
H        -0.90594804041229    5.31863926187952   -1.53012218462187
H        -1.30114173758748    3.89303189872076   -0.55819895076377
H         0.85045612434404    1.27524095636250   -0.89286623457459
H         0.09852842965119   -0.64168651764030   -2.29164386386860
H         1.67288241935722   -2.46626962273535   -2.81105353188574
H         3.98393006647531   -2.38583847092020   -1.96202594870393
H         4.73677875149800   -0.47167158043765   -0.60382645949324
H         3.97915751782512    2.05809133236089   -2.46622401936579
H         5.95207488739199    2.79404137838499   -3.74829994267369
H         7.97567752682154    3.56709209605438   -2.56458248644823
H         8.01445848835237    3.61544003725052   -0.09969650796131
H         6.05183415020190    2.90550950522023    1.18157344120685
H         3.32059925153162    0.26886071945434    2.08497604411153
H         5.00700010209494    0.71204349086057    1.73736070716678
H         4.20797456264408    1.63827030723785    3.97417891275067
H         4.68442744082894    2.92276742801468    2.83414607715406
H         0.84888108492417    2.62497896356146    3.95047819503462
H         2.15385429363868    1.88532909815844    4.91966183514808
H         1.53678202333731    1.06243700183534    3.45186102592222
H         0.91930413680112    2.38077065502137    1.20716255894336

