50
CSD_code = GAQFEJ | q = 0 | S = 0 | Stoichiometry = C26H17MnN2O4 | MND = 5
Mn        4.96434100548381   -0.98952069691153    3.83205966713928
O         5.12546713869061   -1.37942934484975    5.49834188536364
O         4.14480815333826   -0.27399414724226    2.35994641239421
O         5.10444308512062   -2.64317078765047    3.15127989591607
O         8.85955217909341   -0.92276298549204    2.47733273371589
N         4.24173010336556    0.85844268564837    4.57954957991690
N         6.79962198570001   -0.53044134012477    3.28601516415944
C         5.24675857526051   -0.85109092794182    6.67649162805433
C         5.75806331985242   -1.58734843924466    7.76308392815738
C         5.83612681792816   -1.02891360851317    9.01365514647524
C         5.40131231171278    0.28218829856950    9.23563934190789
C         4.90295425145929    1.02434866848934    8.19676472224787
C         4.82110587604044    0.49837579687885    6.89439503845058
C         4.30904272009911    1.27159388701595    5.82512031255927
C         3.69732315785441    1.63399552301085    3.57300090567322
C         3.17656817744778    2.92814813586313    3.64511228208691
C         2.69850144539519    3.53713130184135    2.50549275439548
C         2.72105324801740    2.87281167138915    1.27952203198111
C         3.21527758032550    1.59301379617332    1.17675187119655
C         3.70305718811844    0.94646028312683    2.32243117307864
C         6.06853998602841   -3.33772125928475    2.65384257926959
C         5.86390169638898   -4.69509212355024    2.31687224794946
C         6.87164910465834   -5.45684505614262    1.78382283929764
C         8.13543352634521   -4.90680532625553    1.55251733996051
C         8.37520891232489   -3.59314620867250    1.86458103297947
C         7.36574585628126   -2.78766780187952    2.42036217581511
C         7.63151289599666   -1.42606494684743    2.74435161658332
C         7.53344753992952    0.64749262711661    3.35730518306156
C         7.22610236744341    1.92794080101499    3.79997377846404
C         8.21857487419777    2.88709512177128    3.72742580641542
C         9.48803298165224    2.59959055489080    3.23093382896763
C         9.81273747838615    1.33295324104995    2.78055837289732
C         8.81631399113438    0.37771438845878    2.85269585694584
H         6.07970191952902   -2.60188738033541    7.57809377161746
H         6.23108062450753   -1.60718047138108    9.83563322317883
H         5.45964262048643    0.70397101637544   10.22740662068476
H         4.56203735555800    2.03636476946582    8.36428096764654
H         3.95176021181279    2.26859523587226    6.07849039340924
H         3.14419995693510    3.46052504259525    4.58450297840737
H         2.29998751178885    4.53869644540384    2.56274932086756
H         2.34051708806566    3.37064631934038    0.40002030741421
H         3.22813507840401    1.06606666186843    0.23521115178654
H         4.88311679400899   -5.10972545773769    2.49516406923304
H         6.68743497972113   -6.49240444127909    1.53789807002376
H         8.91856958520986   -5.51687682657529    1.12968168533465
H         9.34494279555118   -3.15305604185805    1.68930088880893
H         6.24813930814422    2.16271765563620    4.17965583940371
H         8.00372058493256    3.88989513120632    4.06332205748424
H        10.23178554481928    3.38038023288504    3.19342994957349
H        10.78741850945429    1.09309032681034    2.38872957164734

