76
CSD_code = GAQFEM | q = 0 | S = 0 | Stoichiometry = C36H29Cl3N4NiO3 | MND = 4
Ni        0.38736540856844    2.09014404942053   11.25326176259629
Cl       -0.67846312492307    2.27480014657124   18.29675230002426
Cl       -2.20713666185396   -0.31306144476530   14.04239565358382
Cl       -3.61065903288415    1.90726868985073   15.72214808074578
N         1.15674932612583    0.88079222420680   12.40874961170659
N         0.13511093153413    3.38530147717253   12.54507633595844
N        -0.62198035781218    3.27295065287278    9.99564332666500
N         4.43682432042028    2.80083387956078    9.35507382114882
H         4.79791131610790    3.12743698563910    8.47549974786811
O         1.66759819289248   -1.09817024945652    9.49235416381024
O         0.63980154396930    0.81351172875807    9.94012651689969
O         0.08771892037785    5.69219863668796   12.59591832009781
C         1.36947698857626   -0.19492956607490   10.24280437410245
C         1.88638691412728   -0.16532658486101   11.70577276413441
H         1.73757714038255   -1.14336317167885   12.17679677313515
C         1.07541683767194    0.86531337175714   13.69750030294700
C         0.42690611397138    1.91292255830561   14.46103885714800
C         0.19429491404152    1.67011096143854   15.82401080468163
H         0.45566914688462    0.71222274375988   16.24498737157157
C        -0.38412844574576    2.62026413070903   16.62825474786710
C        -0.73968388893300    3.85660705314401   16.09813784715123
H        -1.19035075359966    4.60640324026673   16.72911428551039
C        -0.52688521847295    4.11020003376708   14.76665746941136
H        -0.80910521923152    5.07014446780166   14.37009901654425
C         0.04039549978741    3.15994767865355   13.89518088612572
C        -0.01738334948010    4.62705460811449   12.01419694209231
C        -0.35280870659426    4.63075405343005   10.51844712312698
H        -1.24049733777808    5.26830773418777   10.40368690109955
C         0.80592153802437    5.19912817395306    9.67238544915782
H         0.46060568720139    6.04616682135368    9.07885214838803
H         1.62606885842514    5.53669324191850   10.30347037537489
C         1.20123079713524    4.03068315580990    8.77152346760682
H         1.63330999929677    4.34801112875698    7.82533832140995
H         1.90187315427263    3.37464182633548    9.29315839346329
C        -0.11364644181890    3.29052537408705    8.61471751390923
H         0.00364794202693    2.27446353973528    8.23930874647465
H        -0.80430948943018    3.85192504457590    7.97083915085085
C        -2.05588593625168    2.93080681152881   10.01057228090721
H        -2.63604195321109    3.74539891160853    9.55434652776727
H        -2.17890009996107    2.02592956708054    9.40888293655934
C        -2.52882798132077    2.66997466392217   11.41500782375829
C        -2.22765518317783    1.44152500704975   12.00359071615254
H        -1.76979240390526    0.64904724817027   11.41749481829208
C        -2.57092419345282    1.20327537231073   13.32578299359077
C        -3.21224394499637    2.18872814502398   14.07353219051588
C        -3.52546474640144    3.40142842513520   13.48109662340956
H        -4.02761000446508    4.15789760646641   14.06230267264711
C        -3.18542993272392    3.63871697968031   12.16112380705425
H        -3.43252092699037    4.59139345287497   11.71802986596108
C         3.40097601341934    0.13041050079892   11.67101400124488
H         3.78095006467684    0.16897797061623   12.69523910982903
H         3.87268802467115   -0.70494518949572   11.15045239720192
C         3.72323093582593    1.39888342800183   10.95371317953365
C         4.19879807111894    1.49305070409128    9.67760099174697
H         4.38159790366211    0.70567124763172    8.97223898565373
C         4.11486899220012    3.58742178222616   10.42413915535030
C         3.64455269544528    2.73820562800379   11.45952052893717
C         3.28348965200447    3.30674735723223   12.68459152167615
H         2.96887296640423    2.68879118413029   13.51149500954425
C         3.36332324434751    4.67306970855740   12.83429247632016
H         3.07229540823859    5.12543197927871   13.77016416779396
C         3.81187480862052    5.49408281000579   11.79702257572450
H         3.85850160819561    6.56117781995534   11.95428988202199
C         4.20062877763924    4.96465368927202   10.58441339787696
H         4.56175897562893    5.59501584510332    9.78458943170989
C         1.70347414386236   -0.23304564710378   14.48537616556801
C         2.88672869575462    0.00692698659811   15.17655676704009
H         3.33475540224598    0.98981582960021   15.14994969059974
C         3.48644420410298   -1.00676553036187   15.90243116987008
H         4.40622154951325   -0.81139020410258   16.43292757496314
C         2.90676654062145   -2.26310964926260   15.95259911376404
H         3.37446938490764   -3.05232285239036   16.52146436741851
C         1.72181479981403   -2.50280429461404   15.27743673640319
H         1.26016479974741   -3.47764513694255   15.32089356889238
C         1.12167324159164   -1.49532489741909   14.54294623478857
H         0.19265293931757   -1.68208165603144   14.02549886752912

