75
CSD_code = GAQFOU | q = 0 | S = 0 | Stoichiometry = C24H46N2PSiV | MND = 4
V         7.74136948113555    1.28077073059269    9.39461074866384
P         9.95666367454418    0.43274547863283    9.34943828316691
Si        7.23593517204209    0.15791776550613   12.27832387543352
N         7.42855312194374    0.86521023035562    7.86639304065270
N         6.99509836984092    2.79703372700224    9.73603481222673
C         7.17250312389796    0.67539979256023    6.57310839600879
C         7.65828439837737    1.57860465890052    5.59269202486420
C         7.40614680464848    1.33817031622597    4.25405228769244
C         6.67254767964604    0.23703405391337    3.84785509208780
C         6.16255620672088   -0.63250066442522    4.79994808387826
C         6.39507407657448   -0.43301984531058    6.14570563078721
C         8.42647949607225    2.79961564492163    6.01247919811739
C         5.83247415727889   -1.34897746491268    7.18812095136815
C         6.32659961808000    3.84014602233311    9.60508936589872
C         4.83220464010957    3.70201904929512    9.23288253853081
C         3.91213406083572    4.87840255177326    9.56434917687705
C         4.78920572066225    3.42346721592736    7.72165096762362
C         4.27167249661716    2.47120013656436    9.96244495997771
C         7.05618385444701    5.19497977658459    9.75433996395546
C         6.97223032412959    6.01020558564544    8.45905583817026
C         6.52246494265393    6.00403260627373   10.94421619505116
C         8.54463245870193    4.91624976552817   10.02168456631304
C         7.08412721827013   -0.08971205164921   10.43853738421734
C         8.12939459720758    1.81410298123665   12.65515007014817
C         8.27031571498422   -1.23883027885445   13.11084514000883
C         5.57447800556025    0.19534792844364   13.23862990906649
C        11.00100244065511    0.94329023440231    7.91725774939521
C        11.22778977741894    0.48839299059085   10.68613138163294
C         9.90580828430748   -1.37215384678199    9.03187330879257
H         7.78679446163609    2.03197820535086    3.51636880863570
H         6.48778003929431    0.06374640306798    2.79814103220266
H         5.57128566661945   -1.48200415903459    4.48610690165176
H         8.00900648346453    3.68604816079902    5.53491877983011
H         9.47369711732084    2.72609988958919    5.71468847932502
H         8.36887041705757    2.91144899736856    7.09934902746348
H         6.63851778676128   -1.88455781774051    7.69335312051504
H         5.15007009387898   -2.07035436551231    6.74499219166830
H         5.30884207566394   -0.76157423210717    7.94621533266357
H         3.87736062512733    5.05706578223630   10.63592706013756
H         2.90297270866933    4.62833848676893    9.23835238364651
H         4.19703079895446    5.79465539175843    9.05704624719107
H         5.13523783199036    4.28141156923573    7.15104093478687
H         3.76957257826831    3.19745815920388    7.41495107498049
H         5.42293668045075    2.56642124719960    7.49188715280288
H         4.87499029098560    1.58923956485177    9.73416079314620
H         3.24415524531360    2.29219411147455    9.65297283946080
H         4.28603271051360    2.63224543550627   11.03936480238618
H         7.36555396814795    5.43057411304774    7.62631360364683
H         7.56849557590308    6.91629880894177    8.56029342057593
H         5.95516192209407    6.30579652695790    8.22368449838378
H         5.58164935940141    6.49231004087422   10.71776843023284
H         7.24166148596818    6.77771183935897   11.21007386154186
H         6.38318567562813    5.35946357803072   11.81016239407474
H         8.67029460751963    4.38764704964379   10.96523129567801
H         9.09424705099893    5.85481980977429   10.07670066587362
H         8.97360433087646    4.31097042505273    9.22087355507311
H         6.57858356909494   -1.01441843877895   10.15040636915378
H         9.01011633692546    1.94233683936615   12.02614109951447
H         8.45430135859520    1.88011805646630   13.69051567023091
H         7.46003886323379    2.64953468783067   12.46531488190218
H         7.75037010517747   -2.18881823440852   13.03768836296570
H         8.43672260385851   -1.03808334741395   14.16500517247824
H         9.24284193663639   -1.36607002497835   12.64245960563158
H         4.91111144598383    0.95963803182934   12.84662331009953
H         5.72955994822123    0.39683578998089   14.29462972027453
H         5.06044667857318   -0.75702151505043   13.15711544012495
H        10.42953313764744    0.76843154056156    7.00578165933213
H        11.92896587613115    0.37021145144152    7.88343418824946
H        11.23582077489780    2.00612682903113    7.98622221525444
H        11.52938780174573    1.52089639595929   10.86533439631152
H        12.10423751141521   -0.09743461318382   10.40706712657911
H        10.80217268068974    0.08717614936390   11.60455390742722
H         9.44039751863451   -1.86746660337094    9.88297680105032
H        10.90663211812453   -1.77444237891219    8.86412755998352
H         9.28422222854180   -1.53884872872143    8.15246288526568

