62
CSD_code = GAQHIS | q = 1 | S = 0 | Stoichiometry = C33H21N6ORu(1+) | MND = 6
C         1.43173121857099   10.73591237810559    1.38617615838741
H         1.53679844558760    9.76935502422013    0.90713025813775
C         0.87448223028013   11.80424171172657    0.70885071069519
H         0.53775246043654   11.68787110010498   -0.30805052359854
C         0.76077591332146   13.02309819764265    1.36905055206069
H         0.33106731657615   13.87830029853694    0.87148459148590
C         1.20627711234517   13.12216073689753    2.67126885156974
H         1.12982176287060   14.05557133211932    3.20389995515394
C         1.75982809517796   11.99969055537255    3.29390589839681
C         2.26843847635556   11.97986160298816    4.65877115837612
C         2.27218026485814   13.07379875029499    5.56117517667694
H         1.86737008263438   14.02139639627359    5.24541094617317
C         2.78196860440943   12.93294380669410    6.81912056109541
H         2.79661070608804   13.74764452180887    7.52396498196459
C         3.31315413632744   11.67635454415471    7.22204076969739
C         3.27334026394141   10.62268956207592    6.26285109034444
C         3.77380333818357    9.35179019577218    6.57401230414912
C         4.31461930577716    9.15586788752165    7.85772504741113
C         4.30790890839332   10.28946525823692    8.75409833009269
C         4.84642609778354   10.13068846943364   10.05448311259905
H         4.83108357992164   10.98919664787410   10.70654652200949
C         5.36034976636904    8.93142358675367   10.44897512084420
H         5.77047459317042    8.81594162724493   11.44070322010632
C         5.36510711052909    7.82684194417622    9.57173860331211
H         5.77871344047951    6.88928473854933    9.91059571288952
C         4.85636874454389    7.93194033874979    8.30965365255194
H         4.85714900677291    7.09044862268579    7.63470721921548
C         0.08675252064761    8.91303841239398    5.20502287586785
H         0.30126791405493    9.87689969740376    5.65469460390557
C        -1.09927328769657    8.26255751212618    5.47970958191742
H        -1.81901466566338    8.71144757269909    6.14424494267871
C        -1.33988938323136    7.02574783318670    4.89002233470017
H        -2.25461714550744    6.49021868474310    5.08722127551188
C        -0.38136253232899    6.49755238047959    4.04872694970074
H        -0.53688298455116    5.54236057925426    3.57510927217512
C         0.79840075391767    7.20387463624079    3.81287344170037
C         1.88014001631076    6.73552446515114    2.95504183167282
C         1.96671076673224    5.51095908642492    2.30081000286230
H         1.17350539134637    4.78640403131724    2.37977287215633
C         3.10266478598304    5.22417661894580    1.55734557125300
H         3.18985507368788    4.27815636160012    1.04823322719989
C         4.13636281419932    6.14732628973038    1.49026405125759
H         5.03240634341313    5.91834062698157    0.93805227000269
C         4.00377368493355    7.35842245898687    2.16173795243909
C         4.98557215184466    8.43249965697967    2.24820536058535
C         6.21582690608902    8.42976300630414    1.59025044147545
H         6.48593556564626    7.59557026366559    0.96421599148779
C         7.08067441961624    9.49374726790495    1.74984996560015
H         8.03766780341536    9.50441413200770    1.25340456704429
C         6.69203368622657   10.55086662711916    2.56640426199218
H         7.33608136004978   11.40107528266157    2.72012514707063
C         5.46116009303038   10.49543133938095    3.18851199885160
H         5.13537408993105   11.30367702504512    3.83504279354112
C         3.65709209982538    8.35611182588643    5.46107984651519
Ru        2.79183116535101    9.22649497832864    3.86789856294971
N         2.88046087002005    7.63782035974751    2.85760389708351
O         4.03970310042871    7.21272999098355    5.52505761893027
N         1.86413821647777   10.81966775101630    2.63937152365610
N         2.75915138237235   10.79243400203656    5.01943851060860
N         1.02357672726348    8.41385004250242    4.39510486061204
N         4.61575345721719    9.47184552868877    3.04600001245943
N         3.82256585724337   11.48601383606247    8.42786160073642

