62
CSD_code = GAQJOA | q = 0 | S = 0 | Stoichiometry = C28H27N3NiO3 | MND = 4
Ni        1.34040146209089    8.40952737387867   23.04622193328587
O         1.99467864497657    6.34403151061383   26.25204410242910
O         1.57022406843575    6.92262040907403   24.15104298646738
O        -0.15577692093148   10.53176943858173   20.14098095706003
N         1.83506832526620    9.41439426038787   24.50756991790950
N         1.10743218540499    9.90212985393063   21.96912692065292
N         0.65300859894479    7.30710790095322   21.54608515132522
C         1.75997759891757    7.16385343652411   25.39237008026663
C         1.62107864510199    8.67611140452527   25.74395585612973
H         2.33429475087640    8.95973472431648   26.52518086514839
C         2.31635672140935   10.61026976099493   24.51778361106723
C         2.47831176045909   11.39958675775775   23.31484787166870
C         3.27454646877988   12.55271565526998   23.38420244687653
H         3.75682492539119   12.79550700202585   24.31938848290020
C         3.47159096211029   13.36287747197279   22.29333735415643
H         4.09603599902984   14.23965388685699   22.36987243614755
C         2.85581208802291   13.03328342915975   21.09135029763841
H         3.00192043679829   13.65518369935927   20.22063531043159
C         2.06353772369591   11.91502914889839   20.99442984975071
H         1.59552114223536   11.68274334234073   20.05369971267252
C         1.84898076823701   11.05738635264071   22.08695791824086
C         0.26916780759747    9.69817824763472   20.92258255516114
C        -0.20738997532618    8.24788766395309   20.79731735500114
H        -0.20917593702179    7.99806567392271   19.72744503422443
C        -1.62985705825717    8.07770932341976   21.37790308884448
H        -2.31439971146209    7.73134484859391   20.60384185263228
H        -2.01414488542366    9.01997834410793   21.76656614427755
C        -1.45765529537781    7.01965181799270   22.46953813425221
H        -1.18866347340115    7.49408057259945   23.42096351324633
H        -2.34480564336134    6.40808501766354   22.61626987825327
C        -0.25858744120719    6.23266994768172   21.96597540996637
H         0.20653226482280    5.61291653018311   22.73217923780646
H        -0.53346992417536    5.61567658567299   21.09978808351881
C         1.77878361850644    6.79477342152674   20.74612260064181
H         2.17653982169661    5.91969858186580   21.26797993063572
H         1.42628513481146    6.48955572405705   19.75091855878454
C         2.84921429859030    7.85044143757486   20.64042807905919
C         3.66213704917449    8.09568654382298   21.75164805549937
H         3.62250418552796    7.42623270155446   22.60943947007183
C         4.58811325819223    9.12702099669591   21.71914935655507
H         5.21950798063509    9.31126530704087   22.57581321039964
C         4.71215770193245    9.91559173834501   20.58671235395953
H         5.42622853141042   10.72493448892485   20.56745683919182
C         3.92204625914713    9.66268627798427   19.47972637589010
H         4.02239137043293   10.27094990379974   18.59358271634265
C         2.99081424643620    8.63738275277643   19.50725072418336
H         2.36868575187526    8.45562955999374   18.64256324052809
C         2.70723294624416   11.25509672926661   25.80132222236277
C         1.85511874415023   12.17916086890721   26.39401085779416
H         0.92382562874767   12.43248472708993   25.90854173132513
C         2.20367775608524   12.77211573111998   27.59481746553012
H         1.53596538289949   13.48664696240201   28.05241147366452
C         3.40396137178489   12.45169357766421   28.20612657334457
H         3.67370713526261   12.91468286252777   29.14325273725985
C         4.25986906978570   11.53829605175061   27.61310948162474
H         5.19839587019163   11.28911731960021   28.08493598046054
C         3.91457875517760   10.93827335267519   26.41537683991250
H         4.57996384679972   10.22605007093273   25.94896762927946
C         0.19189765267733    8.90684713403190   26.24176673106679
H         0.06616535724655    9.93167516768644   26.58750903399143
H        -0.01979317334761    8.22282538638609   27.05963474958592
H        -0.51285263473141    8.71992322850524   25.42847063164453

