63
CSD_code = GAQJEQ | q = 1 | S = 0 | Stoichiometry = C33H21N6O2Ru(1+) | MND = 6
C         8.11422269149882   11.81931307486893   11.63129170185093
H         8.03498346115379   10.75780126234102   11.42501414592417
C         7.58671411360621   12.35193601046976   12.79008221063840
H         7.09091705954132   11.71208523402370   13.50113298511863
C         7.70844041198982   13.71917027093354   13.01670458861484
H         7.30826423325738   14.16648170627219   13.91221680430326
C         8.34936867866225   14.49306542939530   12.07026147963172
H         8.45393941087433   15.55510499525684   12.21688139511801
C         8.85971283704576   13.89445401364258   10.91686718646905
C         9.52389194558077   14.60399327448687    9.83371742694836
C         9.81858230313121   15.98921858513946    9.83776134247475
H         9.54936083376249   16.58730525325497   10.69231541338431
C        10.46199816366159   16.54983240375354    8.77630385639189
H        10.73220701446148   17.59272118285957    8.75213546909691
C        10.78300900322404   15.74798959267539    7.64904244998617
C        10.42057172709783   14.35751208136354    7.69451196586860
C        10.64163426855949   13.57210002846963    6.55565545224973
C        11.26749120000452   14.15550657717186    5.44835115379288
C        11.64409233839037   15.54127333363999    5.53609594977850
C        12.29491295375338   16.14465599500306    4.43415453584292
H        12.57417677546130   17.18216024281247    4.52477359841042
C        12.55025941538944   15.42153008660382    3.30679080148036
H        13.04760558993352   15.88331729836570    2.46726718337715
C        12.16830010995817   14.06582649354101    3.21477012598556
H        12.37881923685607   13.52213858852582    2.30656864768251
C        11.54364680973363   13.44463902030790    4.25502618465965
H        11.24515446080216   12.40975661835494    4.19279348519096
C         7.10903273209580   12.47830283322238    7.50301912111933
H         7.39189443110194   13.51735931912635    7.62936249334347
C         6.01268110708353   12.13702223650608    6.73296963149198
H         5.43585899763251   12.90647196604835    6.24707627879518
C         5.69142896371985   10.79548851968311    6.58566546498504
H         4.85342372006602   10.49193870986054    5.97861954980042
C         6.47514794987271    9.85163607408109    7.22321451820417
H         6.25624512554507    8.80158269274033    7.12058575293241
C         7.56849756240374   10.26485033901733    7.97981733378977
C         8.49932608796808    9.34859599634210    8.64234040419928
C         8.46994638749399    7.95601719361232    8.61712992628072
H         7.67610360934055    7.42831725766488    8.11589119066657
C         9.49805688966300    7.25542200276123    9.23010287223374
H         9.49306851735773    6.17720125684684    9.22551992932829
C        10.55558408529673    7.94089274772535    9.81195538708347
H        11.38338140427070    7.39961863113467   10.23827200102112
C        10.53384508153421    9.33280940096990    9.80684507933887
C        11.59050487719217   10.23370337644485   10.27543989500560
C        12.76893775476147    9.79813968847180   10.87750786062062
H        12.92979717374960    8.74666150045933   11.04904798170683
C        13.73255843563664   10.72059249775564   11.24288815568135
H        14.65406786123120   10.39879506298272   11.70138888905530
C        13.49066900716487   12.06534853959266   11.00090516416110
H        14.21520071439657   12.81932312069582   11.26138371823837
C        12.29550239685647   12.42974070763641   10.40610324355977
H        12.08233517191663   13.47326812330967   10.20448577646609
C        10.15449824736422   12.12362845189686    6.53422698903630
O         9.27913409252059   11.80355013210557    5.74638499263698
O        10.74860241277722   11.34824193026998    7.36276098589794
Ru        9.62566522422629   11.87266500720771    9.06506748670535
N         7.87376391326987   11.57820315865767    8.11295703119574
N         9.49345698557778    9.99091739220854    9.27450907223978
N         9.84478928018199   13.81635053511300    8.80233140450569
N        11.36454021307158   11.55066909252758   10.04964140780922
N         8.73823982659167   12.55696006313190   10.70985917063213
N        11.37863671168109   16.29142578865195    6.60433629996231

