44
CSD_code = GAQLES | q = 0 | S = 0 | Stoichiometry = C19H21ClNORh | MND = 8
Rh       11.33742502283687   12.06491010535360    5.41345623243243
Cl       11.67467372862266   11.05046696075821    3.38433120994362
O        11.01404750225361   13.82898102986884    4.38639607034760
N        13.26074826821109   12.70081751733217    5.16219781381959
C        14.36375477267710   12.08629620599061    5.53795656504795
H        14.25821588956755   11.18036096505042    6.11968659213220
C        15.63547655314741   12.56358731163217    5.19486571011718
H        16.50474628030078   12.01845137818638    5.52858477033676
C        15.75694206601959   13.70404093598930    4.44699693223011
H        16.72746186846139   14.09142766345158    4.17324873297967
C        14.59522029828461   14.37884634241732    4.01558254471455
C        14.58375586272090   15.54021639485871    3.23081777511736
H        15.52047764639694   15.97866429077113    2.92348039756888
C        13.38244068217684   16.09617680885274    2.84945120097652
H        13.38465207180773   16.98805949270657    2.23903550594088
C        12.15913634405906   15.54743570901086    3.21415741102946
H        11.23428295559225   15.99767000668140    2.89034735263544
C        12.10687295351023   14.39375158254201    3.99824693047420
C        13.35163709460723   13.81639003137250    4.40443733199153
C        11.11210914045086   11.92734695625539    7.60323104567139
C         9.92920561426590   12.48697871484709    7.05275872475704
C         9.37320390547365   11.53210944902536    6.12414394761038
C        10.16636575894003   10.34436191429662    6.18743161425071
C        11.28133813806909   10.60545972798884    7.03894910943461
C        11.94961691731313   12.51277110509710    8.69703496374899
H        11.59616386562345   12.14529585732750    9.66240639228818
H        11.88916022564413   13.59848877004014    8.70009603904693
H        12.99539887482370   12.23136245177208    8.58933699110772
C         9.28608968095127   13.78940217615338    7.40279833068587
H         9.91079097422092   14.37248189684722    8.07419321270411
H         8.32800100954731   13.60249632635481    7.88974830932020
H         9.10175399053237   14.37563755996829    6.50360587816410
C         8.04900386089520   11.66792771907112    5.43897806951201
H         7.24763713086608   11.36998754755454    6.11878947618619
H         8.01015898332880   11.03828399303862    4.55363618768835
H         7.87967954328714   12.69841703676124    5.13615860348659
C         9.85721273386348    9.04637646691296    5.51501712441037
H        10.21718521970128    9.05152819705545    4.48515058601310
H         8.78144281383806    8.88214529688004    5.50067437266943
H        10.33641827330455    8.22401793049499    6.04094368264275
C        12.27016659862376    9.57392702800913    7.49130880782302
H        11.78331662320016    8.88130069454871    8.18082745998869
H        13.10810110834257   10.03078907848709    8.01266190260520
H        12.64881115365347    9.00165537238479    6.64624208835045

