104
CSD_code = GAQLOC | q = 0 | S = 0 | Stoichiometry = C54H45As3AuBr | MND = 4
Au        3.91242583028137    5.13993065217477    3.64168754898845
Br        2.17975967681065    3.49522510073267    3.71993542818362
As        5.17754558842133    2.13582606016405    2.87267237802421
As        5.27093983247713    3.54689100288943    6.41164124203834
As        5.62685843527496    6.72767271945709    3.68760886337046
C         4.17169988998499    4.35953500149157    7.82073347796205
C         4.65721681843936    4.88148707157549    9.01141270129567
H         5.72198948203095    4.87480370222521    9.21460455541052
C         3.79018200896929    5.41866128355883    9.94761975137173
H         4.18158775780616    5.82172766485334   10.87197444328255
C         2.42729877885108    5.43799046177252    9.70463844303414
H         1.75356801315780    5.85933512746611   10.43711206853111
C         1.93144676732825    4.91277961229148    8.52234100875663
H         0.86901818775011    4.92027438525510    8.32737736094579
C         2.79878854269322    4.37894966432712    7.58667187601614
H         2.41047113524070    3.96536309442646    6.66083162105467
C         4.88049245871383    3.12636607124669    1.21802671315608
C         3.91353202190922    2.72822543505049    0.30410542891247
H         3.36783824969308    1.80779371787276    0.47518152148571
C         3.63179213727396    3.49877977732661   -0.81058877209891
H         2.87519994673393    3.17386431651284   -1.51020703606647
C         4.31281973172434    4.68414085297923   -1.02696719886518
H         4.09677570539097    5.28646104096403   -1.89742555268590
C         5.27240760139365    5.10088723275704   -0.11862676910990
H         5.80921998645548    6.02591764974971   -0.28364902919008
C         5.54300615525832    4.33284024768883    1.00017110937851
H         6.30568012264662    4.66934107275311    1.70908286957788
C         5.21268688016673    8.00754358834839    5.06800451059636
C         4.52412866875683    7.52905903965196    6.17766174463784
H         4.22151326824005    6.48120912249498    6.19968044686036
C         4.22249967145106    8.36851845422521    7.23425541769980
H         3.69487755124713    7.98126452003307    8.09349858375562
C         4.59616448347668    9.70191736593492    7.17704446498121
H         4.36110412790272   10.36353136102418    7.99740980022639
C         5.26032800954619   10.19242864516842    6.06417059181618
H         5.53734577414993   11.23595711612857    6.01690615738854
C         5.57004850353804    9.34853615835160    5.01119237838740
H         6.07692861919385    9.73611564210273    4.13100969417380
C         5.06855276425804    1.73287355812348    7.10665570900315
C         7.04364549208044    3.97338701369152    7.10313748249430
C         4.53271533856947    0.38744099405973    2.27698859735158
C         7.08245089344744    1.74214015280350    2.69822970856099
C         7.43903905424443    6.21489977087507    4.09978186463480
C         5.80488861345420    7.84091085440469    2.12567110076797
C         7.67940763306705    1.18628836596042    3.82498250394502
H         7.06632001679179    1.02220713742136    4.71006963761139
C         7.86048604352528    1.96790989424302    1.57286845516357
H         7.41349871164926    2.40323973070813    0.68577844819239
C         6.96718282660782    7.93197057839368    1.37067400820746
H         7.85594815807141    7.39015174568106    1.68294141712281
C         5.27788426075166   -0.44019837065460    1.44753286179455
H         6.26072165903690   -0.12810437246779    1.11232289846328
C         9.20469011002466    1.63625709201492    1.56964715170329
H         9.80110367621612    1.81325846042619    0.68491185386740
C         9.78551161188259    1.07155375262766    2.69235383519390
H        10.83402133936912    0.80961446204048    2.68563527738406
C         9.01918023411681    0.84541661108384    3.82519742064087
H         9.46946854400247    0.40671925344896    4.70526274139857
C         7.79257485302655    4.87300185499605    4.11277322198851
H         7.02876058171272    4.11669244183452    3.92656360187457
C         9.09872591045641    4.49744266535259    4.37391463265020
H         9.36634213109219    3.45178886705864    4.37224224355622
C        10.05180580779584    5.46533727310163    4.63987469579022
H        11.07109669911694    5.17484757148506    4.84559620181934
C         9.70098030668751    6.80647841561599    4.65006018146535
H        10.44538882141654    7.55899407023382    4.86834267822523
C         8.39827525887806    7.18211376739021    4.37852457656252
H         8.11697744705225    8.23154796781534    4.38768247090799
C         6.98643993267257    8.70177066444666    0.21901806379542
H         7.89245406493110    8.77242921988165   -0.36585414924756
C         5.84520701353826    9.37281823446566   -0.18778731472673
H         5.86342012435011    9.96944801958759   -1.08761460160332
C         4.65633167724598    8.50501257743036    1.70136987355752
H         3.74488925533975    8.40556687525105    2.28943876370526
C         4.77756533255354   -1.66524610340748    1.04417941228074
H         5.36740529313981   -2.30056926777771    0.39745860208262
C         3.52409104717154   -2.07640058578927    1.46604991630957
H         3.13493488138487   -3.03354807561077    1.14910862922957
C         3.27520217914773   -0.03332434187051    2.69896110173561
H         2.68101974307821    0.61435777714494    3.33519749711907
C         7.39047050645526    5.30812921786345    7.29355154111783
H         6.64375762585960    6.08161803628084    7.12420432063739
C         8.02061414240064    3.00427213386354    7.28556673102786
H         7.77532434962055    1.96199602798134    7.11616323229075
C         8.66295421488798    5.66179044086415    7.70017789521060
H         8.91028876221085    6.70267869245644    7.85785217862467
C         9.62051676558579    4.68145161731553    7.90272009954483
H        10.61550890715272    4.95425389279210    8.22353837819394
C         5.40628893959899    1.40709059403793    8.41439164154134
H         5.81542171698155    2.16818602647387    9.07009627780008
C         4.52284458539636    0.75487374124228    6.28618614693819
H         4.23272319301710    1.01587613635538    5.27044920352066
C         5.22372868524723    0.12003241301442    8.88469387274817
H         5.49220992821457   -0.12507448168104    9.90310764504908
C         4.69366441432649   -0.85443082519893    8.05359396754378
H         4.55305218974817   -1.85986021665728    8.42351604685522
C         2.77289500736501   -1.25743957628095    2.29215916861459
H         1.79246255623687   -1.57118259824733    2.62069094915964
C         4.33837669298277   -0.53498883161782    6.75433197382745
H         3.91546821516664   -1.28686115818925    6.10368243376373
C         4.67674108068707    9.27292146980055    0.55221661066249
H         3.78468915666401    9.78853819397188    0.22812056691179
C         9.29816127178895    3.35294517698254    7.68656581604031
H        10.04554532951616    2.58553627022084    7.83318018710240

