135
CSD_code = GAQPUK | q = 0 | S = 0 | Stoichiometry = C68H60Cl2N2P2Pt | MND = 4
Pt       -0.97755458822939    0.00034231869419    6.33437363195778
P        -2.25426313623179   -0.31530175385263    3.39642635935641
Cl       -1.52337479692533    2.24164769828774    6.50942629298668
C        -0.06559237748789    1.06393411347910    3.70620775040861
N        -1.00748527588634    0.21114215509183    4.27150299037061
C        -3.51913503836418    0.90664769527825    2.91186044588720
C        -3.73844583817707    1.97153205547975    3.77842039568271
H        -3.12679411446809    2.07259031170255    4.66641150728677
C        -4.72409467451690    2.89844060457637    3.49219576215840
H        -4.89035927018701    3.72705967959654    4.16394335009622
C        -5.49195853254859    2.76191407820386    2.34671510182414
H        -6.26124862439200    3.48593684142078    2.12197135299691
C        -5.27552238388915    1.69737979128736    1.48622609258875
H        -5.87726687405311    1.58968116109311    0.59570865220016
C        -4.29129394577476    0.76612476752501    1.76520429068867
H        -4.13394567419514   -0.06933091395298    1.09857014631326
C        -3.17288410156338   -1.48922928143836    4.44753456803885
H        -3.49024545485666   -0.89916246191821    5.31603004375525
H        -2.47145233779509   -2.25699324496571    4.78689064256431
C        -4.34013876243335   -2.06530460575114    3.71527059437923
C        -5.53996754039134   -1.36699293437057    3.63348556381075
H        -5.63675434318981   -0.41589878356057    4.13556400469719
C        -6.60904862703287   -1.88573259688119    2.92562429286005
H        -7.53419636918441   -1.33102873253009    2.87049656870734
C        -6.49552227907458   -3.11055638954812    2.28967127942504
H        -7.32974316671333   -3.51463392764191    1.73592037407477
C        -5.30965377927032   -3.81949133341008    2.37557240462887
H        -5.21658115702046   -4.78078056336504    1.89187508023022
C        -4.23988782286797   -3.29947322457867    3.08306597964699
H        -3.32227235229004   -3.86601483002846    3.15879663027119
C        -1.71397405548775   -1.16482467829245    1.84360183751980
H        -2.42593379178370   -1.97440974417070    1.65860421906333
H        -1.76075874491088   -0.45440138279360    1.01569340756049
C        -0.31903904702789   -1.68877951549958    2.01389762132226
C         0.74842756908491   -1.07697911654381    1.36912868232422
H         0.57229388764596   -0.23067328874210    0.72080718827724
C         2.03863655238055   -1.54139055963755    1.55326251005416
H         2.85822138334688   -1.05423553872766    1.04589235075754
C         2.27709110628291   -2.62004325866087    2.38778659486300
H         3.28581857113768   -2.97484039749148    2.53931579409195
C         1.21746763451103   -3.24006488315077    3.02792829866498
H         1.39068385446743   -4.07603460746833    3.68813783926998
C        -0.07277539927346   -2.77817463259937    2.83975934702529
H        -0.89079086279139   -3.26863059762691    3.34456684876597
C         1.19554861894690    1.15990548416502    4.46723739004404
C         1.88525746600027    0.00336200534899    4.83011455967619
H         1.48513915199741   -0.96415607534732    4.56703086547303
C         3.11170306751230    0.10021052164377    5.46759840485450
H         3.64940090047371   -0.80115229300836    5.72589834075737
C         3.65061870797502    1.34228525310845    5.76153639297283
H         4.61555997087550    1.41794589441214    6.24149944245265
C         2.94508830924118    2.49294204841413    5.44367088909902
H         3.35422803867247    3.46081013956399    5.69362132304454
C         1.72549639830808    2.40594932970987    4.80026205261938
H         1.17507444125171    3.29784196523059    4.54338589005597
C        -0.29422580969176    1.74602490928883    2.56619520768475
H        -1.30570916848671    1.71477863797344    2.16644281409485
C         0.64039167045065    2.54209334535410    1.79426216947493
C         0.14751170125234    3.59107487668135    1.01309325979151
H        -0.91280431894905    3.80529120750825    1.03018432597515
C         0.99252552014949    4.36124045607516    0.23898759349512
H         0.59054887050316    5.17398213031527   -0.34934902546729
C         2.35098540171547    4.09203075366588    0.21220727338830
H         3.01336841640863    4.69260289174220   -0.39377216168947
C         2.85043260505650    3.03737093076411    0.95959761359421
H         3.90642553384210    2.80848766612873    0.92904840942551
C         2.00941561469153    2.26701208419061    1.73770469151023
H         2.40761347922158    1.43278910731013    2.29424038316758
P         0.29586023762537    0.31530673504319    9.27233596179589
Cl       -0.43883677104852   -2.24211411751781    6.15626519101380
C        -1.89283339249388   -1.06383467383754    8.96220276281566
N        -0.95087029483810   -0.21096868688962    8.39711644553269
C         1.56064661141626   -0.90672510144163    9.75690153862498
C         1.78004475930492   -1.97153564068379    8.89028351593363
H         1.16851273996179   -2.07250298798431    8.00226053909984
C         2.76565208275013   -2.89847742822029    9.17645487234603
H         2.93190564214671   -3.72705645289287    8.50465235180353
C         3.53346470572874   -2.76202964765879   10.32196494881320
H         4.30272059543914   -3.48608737823450   10.54669630687574
C         3.31699503544364   -1.69753769686253   11.18250317008442
H         3.91871479022082   -1.58989450201042   12.07303797784400
C         2.33276193970291   -0.76626932448446   10.90357754221315
H         2.17541037184890    0.06915909593435   11.57024201564151
C         1.21456892482949    1.48912050743768    8.22119562212898
H         1.53167708871514    0.89908464408999    7.35258484975983
H         0.51332646591683    2.25707570360058    7.88201484003434
C         2.38185691721454    2.06508982709076    8.95342110866867
C         3.58164724263120    1.36673003279827    9.03511080875493
H         3.67837395757653    0.41567436105954    8.53294934064456
C         4.65074326653887    1.88537315346900    9.74300759891144
H         5.57585736983714    1.33061560675998    9.79810188862971
C         4.53725992828650    3.11014545894573   10.37907373670316
H         5.37148629905106    3.51412633970154   10.93288445408190
C         3.35142976540102    3.81915157151687   10.29322266418465
H         3.25839651796337    4.78040602990087   10.77699997221531
C         2.28164840028077    3.29923096412543    9.58569045122431
H         1.36405943997308    3.86582413326153    9.50997115382714
C        -0.24453387374426    1.16484645395962   10.82508181640089
H         0.46748628962033    1.97436877922351   11.01010633635529
H        -0.19785787633663    0.45439440884926   11.65296780703880
C        -1.63942051910724    1.68887272728465   10.65466388133425
C        -2.70695280391969    1.07707936491636   11.29933258548509
H        -2.53088854554646    0.23073248698512   11.94761982108544
C        -3.99713213650694    1.54154626929568   11.11514887388964
H        -4.81676209010521    1.05439463504919   11.62245024413521
C        -4.23549459181691    2.62025030557852   10.28066372449318
H        -5.24419988482552    2.97510127711505   10.12910668753459
C        -3.17580876520542    3.24024551390355    9.64059775579310
H        -3.34894963914355    4.07626985332239    8.98043624779708
C        -1.88559011046811    2.77829404014722    9.82880841671754
H        -1.06754420576122    3.26873617530298    9.32403871318935
C        -3.15396564333009   -1.15972467133292    8.20113042637400
C        -3.84369209584727   -0.00314176519552    7.83837011042156
H        -3.44362609314848    0.96435900172052    8.10162302940383
C        -5.07014975030672   -0.09991902388839    7.20089058391782
H        -5.60780100555589    0.80147886017474    6.94261450085668
C        -5.60914696500131   -1.34196108743670    6.90696385626073
H        -6.57412487156019   -1.41756118688403    6.42706291084408
C        -4.90366978864425   -2.49265546523879    7.22480180010835
H        -5.31289773007814   -3.46050254716219    6.97490214912997
C        -3.68402074660117   -2.40573702646526    7.86812398822195
H        -3.13366606869868   -3.29767296472696    8.12498792221859
C        -1.66428384228645   -1.74600482959472   10.10219437401022
H        -0.65282308778004   -1.71479860501744   10.50199381324424
C        -2.59894209472232   -2.54210488292423   10.87405677995291
C        -2.10610061077128   -3.59114894495224   11.65515964787756
H        -1.04579672630848   -3.80543164521696   11.63801878195001
C        -2.95113715419526   -4.36131508089308   12.42924124528789
H        -2.54919277139323   -5.17414716730719   13.01748824733487
C        -4.30958015286963   -4.09203576507405   12.45606754184844
H        -4.97198156016161   -4.69261147840743   13.06202539910372
C        -4.80898968400059   -3.03731087211556   11.70874858436122
H        -5.86496655187339   -2.80835700691537   11.73936083462175
C        -3.96795000416139   -2.26695331059999   10.93066344014796
H        -4.36610689130741   -1.43264411426251   10.37422069609140

