54
CSD_code = GAQSIA | q = 0 | S = 0 | Stoichiometry = C22H27MoN3O | MND = 9
Mo        1.37545494302826    4.82645015664492    1.40213814131466
O         3.21140650364392    4.00494985274416    1.00247173956201
N         2.83006956581886    6.17228922781897    2.54357308930759
N         1.09778491609216    2.90316550743778    1.73250770710067
N         0.48421918054369    4.75846533641055    3.16554249564077
C         3.06701962736374    2.78492229805401    0.55889776680764
C         4.01232803845228    2.14368776044466   -0.24395274714132
C         3.76396486395373    0.86816178473514   -0.71200414961784
C         2.58075463355359    0.21999039134617   -0.39058298531731
C         1.64168617974799    0.82418232412092    0.42712115184668
C         1.87525066176708    2.10063553223757    0.92991378200554
C         0.17978192821958    2.51797460441194    2.66351581084541
C        -0.36707010585360    1.26628909000567    2.95591759667869
C        -1.27753799292030    1.13479187940403    3.98602417667157
C        -1.65113352245357    2.22812300243516    4.75992342093795
C        -1.09239379266240    3.46566416500918    4.52455216800245
C        -0.17511766598781    3.62337376750970    3.48329098212482
C         0.34256741002394    4.56617657431053   -0.63301238881027
C        -0.01230926663908    3.33154640693942   -1.40421925566203
C         1.40659798196611    5.44523305995904   -0.93612854817537
C         2.45684106712045    5.20910884736252   -1.97632965301436
C         1.28972198119601    6.59420631603944   -0.12017661648867
C         2.12277971615711    7.83600420930548   -0.27605036274457
C         0.10088740842022    6.47737897849587    0.68335324854793
C        -0.62185398049389    7.61082648001393    1.35499822534080
C        -0.49881682613509    5.19856515862884    0.36009781180438
C        -1.91480963284481    4.80179936551481    0.66251810340133
H         2.73345656992920    6.16423417610488    3.55439973843155
H         3.75202375143316    5.81376970424758    2.30356475727063
H         2.75433642082493    7.12661870895363    2.21119894998997
H         4.91801075688661    2.67030133576326   -0.50926954394632
H         4.48906636775275    0.38069815284420   -1.34788821751238
H         2.38247167489404   -0.76484794242105   -0.78777568218747
H         0.71272988234943    0.31234884462739    0.62098686573249
H        -0.07845189304022    0.38875315346412    2.40244066974422
H        -1.70072942460503    0.16348016690276    4.19673759517413
H        -2.36928045313619    2.10208952412069    5.55700435191820
H        -1.35401744988653    4.31864062841487    5.13738414658680
H        -0.57453542570120    2.63481488997247   -0.78462908656993
H        -0.62893570824379    3.59416440723221   -2.26710755116147
H         0.87983357094818    2.82152281612640   -1.76448829421011
H         2.74705072518299    4.15981229755811   -2.00386134248423
H         2.07325869053245    5.48178149955858   -2.96195459693133
H         3.34648169988819    5.80362325063236   -1.77914032356767
H         3.18754230084270    7.60400548467848   -0.31842931101174
H         1.85803320349369    8.34222558027917   -1.20696336828335
H         1.94790688401537    8.53804945809808    0.53850644723022
H         0.07107686391508    8.33494274354920    1.78217631809296
H        -1.25891345343506    8.13574042053921    0.63900289982307
H        -1.25570964649426    7.23620274625307    2.15642811527781
H        -2.59782972050790    5.21482958199720   -0.08368238588647
H        -2.02166386298860    3.71807350187408    0.66215504733644
H        -2.21731336462175    5.16482426736853    1.64310198012383
H         0.27802721873593    5.51163852406625    3.82010111004743

