83
CSD_code = GAQSAT | q = 0 | S = 0 | Stoichiometry = C43H35NP2PtS | MND = 4
Pt       11.46354869868645    4.08402843184254    2.60245969984803
P         9.31828062081016    4.03610946065495    1.85527971112845
S        12.53403001629635   -0.38937935317595    3.44321730274145
C        11.93852867401505    0.99812416963944    2.97338271809786
N        11.45002030430332    1.99969286156706    2.59232297972323
C        11.46797464892262    6.09860815762581    2.58904503745271
C        11.54524090755974    6.80408460128455    1.39152633928637
H        11.59923979179598    6.26868174638813    0.44835124492629
C        11.54896140542719    8.18812285402032    1.37300996227691
H        11.60744951352713    8.71381531106977    0.42961931000134
C        11.47394673064534    8.89850343735692    2.55780761741558
H        11.47572660261765    9.97918825247323    2.54575477823489
C         8.57022076603114    5.60199444606814    1.31507602867363
C         8.40358062230177    5.93931985571521   -0.02140451261702
H         8.64454653447425    5.22131138565511   -0.79336944304258
C         7.93121605863799    7.19557321257575   -0.36067177572738
H         7.80158255585476    7.45631735052486   -1.40105219671442
C         7.63383995742081    8.11857648962568    0.62697455591534
H         7.27484708047115    9.10063940814967    0.35695960340698
C         7.80102484042258    7.78563670764902    1.96251971919215
H         7.57461872069476    8.50738671792953    2.73308280405799
C         8.26942280665597    6.53373794319816    2.30565552111041
H         8.41713226818987    6.26554406386837    3.34368776629847
C         9.33625613492151    3.00788659543433    0.36114328462907
C         8.27924203340847    2.21544787440471   -0.06511991481497
H         7.35893924961523    2.18748613034698    0.50146280925330
C         8.41820139545628    1.45056573528682   -1.21080226455338
H         7.59997406870198    0.82765980374780   -1.54177910364661
C         9.60323298985622    1.47329868286817   -1.92777046311439
H         9.70604182714736    0.86754552366091   -2.81601701371375
C        10.66172937735443    2.26140323007739   -1.50184177566998
H        11.58830108880850    2.27011460998819   -2.05728019882120
C        10.52886163449438    3.02457364300578   -0.35858866517157
H        11.35144513223520    3.64004555270205    0.00635545548091
C         8.04020962079548    3.31651795557710    2.92267094119496
C         8.44196660665136    2.47035203839722    3.95071485986445
H         9.49685428608620    2.27017491069528    4.08964155218555
C         7.49742304136989    1.88230714840483    4.77217487638518
H         7.81132497074885    1.22190127505138    5.56691680468611
C         6.15081964104053    2.13961760401396    4.57286634402732
H         5.41227195661963    1.68091392603750    5.21377124831291
C         5.74765243920667    2.98774038648977    3.55300629179607
H         4.69700984793844    3.18884342632855    3.40104116615797
C         6.68691320662517    3.57869444033897    2.72782900575923
H         6.37595846065460    4.24894958133406    1.93737021145815
P        13.60205834226595    4.03749657899054    3.38056889722082
C        11.39548210538381    6.83068755772477    3.77027346662030
H        11.34070865662478    6.31738014930578    4.72517518223273
C        11.39713074724692    8.21489661401380    3.75796746059054
H        11.34177361653318    8.76146944858373    4.68958404962358
C        14.34868732308493    5.59268519035003    3.94943141269322
C        14.50078819422033    5.91157534160892    5.29216038109257
H        14.24077210725422    5.18659283959478    6.05151776895712
C        14.98409605780135    7.15768555400499    5.65259322584537
H        15.10340739365633    7.40450090941722    6.69761831071661
C        15.30671370801499    8.08810716887380    4.67983151423337
H        15.67527333409632    9.06195620642255    4.96635984156670
C        15.15337626017648    7.77332901971707    3.33818925273753
H        15.39967270113070    8.50101779349425    2.57937421577860
C        14.67424785665383    6.53157659190615    2.97377287485599
H        14.53711478491096    6.27698800140831    1.93085398878221
C        13.54009937203186    2.98984782958961    4.85965390811557
C        14.54944742669367    2.12610302864416    5.26121715576978
H        15.46723131013542    2.06184988414977    4.69397047699220
C        14.36045165695307    1.32661147270934    6.37539263500907
H        15.13830893233603    0.64234117734741    6.68047945093897
C        13.17228297469834    1.38342960600337    7.08382756767643
H        13.02652954667800    0.74402006597344    7.94188489054859
C        12.16041643099526    2.24243598615824    6.68248800387552
H        11.22774107292169    2.27413366952721    7.22711389771940
C        12.34256766431066    3.04114641436916    5.57128287079602
H        11.55071712272542    3.70526275370926    5.22195335191909
C        14.89662796890575    3.32692071836450    2.32966821168239
C        14.51661320950646    2.56276123759816    1.23217938174215
H        13.46339809523802    2.42632403410318    1.02052681612083
C        15.47925896341667    1.97249330649388    0.43374151183457
H        15.18283705019122    1.37148504792009   -0.41314480012341
C        16.82197010228190    2.14871292313990    0.72471944505882
H        17.57447428226103    1.68514233823638    0.10389390991430
C        17.20427366688801    2.92150828039441    1.81046667378225
H        18.25244352663823    3.06106922604616    2.03234400387578
C        16.24687304465783    3.51283711177239    2.61366846543749
H        16.54022425497529    4.12406133641357    3.45720010435280

