56
CSD_code = GAQVOJ | q = 0 | S = 0 | Stoichiometry = C25H22F4N4Pt | MND = 4
Pt       -0.00130647168749    1.57582779470994    5.17649416281339
C         1.79352624518548    1.86582887114330    7.56722339975186
C         2.24145751833016    2.57088289458660    8.71441465944697
C         3.57059195486988    2.60980540098807    9.07985112324133
C         4.58007429484206    1.97514443515247    8.35798220314326
C         4.15532281381926    1.23993784894979    7.25700341558475
C         2.82696419755214    1.15605193256179    6.90634658612594
C         6.01797471566646    2.08431265684815    8.76098349518235
C        -0.60124117780332    1.84704737689430    7.98785723434459
C        -1.51028366898224    0.71839963860299    7.46557306072937
C        -2.89051821524741    1.38733064396820    5.58778629951902
C        -2.97367089708077    2.45017093681716    4.67111816604419
C        -4.17631954144103    2.83092756926046    4.11604293078020
C        -5.35082480597563    2.19169825539486    4.47897326955577
C        -5.29844630734485    1.17369952036669    5.41909977914642
C        -4.09816796376803    0.77305718849393    5.96488099251448
C        -1.16460205507618   -0.12005116240140    3.18666790126455
C        -1.67928320028803   -0.56271263206478    1.98348029492393
C        -1.65860363782597    0.28324537220253    0.88444295169703
C        -1.11051668579688    1.54817866556125    1.04437267451762
C        -0.62194468847698    1.91698072372927    2.28175339495004
C         2.56344425634945    1.75583568946410    3.58591520474315
C         3.83354416372283    2.21277131200704    3.28474540009020
C         4.26876337518664    3.40423847779146    3.84383515583473
C         3.39824067441383    4.10113790907694    4.66861141311131
C         2.14605242435416    3.57101964370643    4.91888940220256
N         0.54404420691127    1.85331232947811    7.08855378624815
N        -1.67926604134854    0.93827477769203    6.03996695220837
N        -0.64713073446921    1.10466196926578    3.34393561393168
N         1.73638030086918    2.41207108033369    4.39956206912535
F         1.35440570780100    3.28595006053490    9.45145856683102
F         3.92340044940123    3.32914823361343   10.16656296037923
F         5.06794487852909    0.56630647735033    6.51771645708082
F         2.46008937691446    0.31947406732560    5.89041867729731
H         6.62611195420413    1.39749474685058    8.17970352074582
H         6.13068138391556    1.85538489060981    9.81921384776685
H         6.38180470253643    3.09955656254259    8.60108422138966
H        -0.29911942988981    1.65653515538649    9.02122664649406
H        -1.14288300592542    2.80188371984361    7.94458736314486
H        -2.47137209402828    0.72951301181127    7.98800017560319
H        -1.01590686746385   -0.24584732442414    7.64499139756035
H        -2.06718987366636    3.00552550100248    4.43929629702040
H        -4.20413026813324    3.65133648941750    3.41109961206177
H        -6.29451836801760    2.49289871082439    4.04958386039551
H        -6.21011728001010    0.67724873936212    5.72206296123472
H        -4.07947016406636   -0.04046186351301    6.67584698213174
H        -1.17209178306767   -0.75248710823426    4.06649888683097
H        -2.09402748075996   -1.55529568070398    1.91103623867064
H        -2.05829345189747   -0.03074085890114   -0.06699212792072
H        -1.06971804891169    2.24402983526280    0.22132606188566
H        -0.20282049175072    2.90484336291877    2.43194775804881
H         2.20367102046507    0.81725451213994    3.18409581744766
H         4.47360722519605    1.63500738866885    2.63760981626766
H         5.26113440003421    3.77820306573661    3.64484606829638
H         3.68816955667733    5.03471891386328    5.12338603260302
H         1.44448290236035    4.08423227011410    5.56662890805653

