111
CSD_code = GAQXEE | q = 0 | S = 0 | Stoichiometry = C40H58B2F4N4P2Pt | MND = 4
C         0.43266191979884    2.76948484189545   11.32597343586844
C        -0.34088330144939    3.45490050154126   12.27137953062381
C        -0.25206567722646    4.79276180589517   12.70660456192859
H         0.46619008763056    5.51152842786664   12.36158198292424
C        -1.25524439222134    4.98990642695684   13.63603021232218
H        -1.48354586179873    5.89349004725823   14.16704357179752
C        -1.92944259525992    3.77598390138613   13.76131972326326
H        -2.75945733247426    3.52277529913770   14.39275332636668
C         0.04322503028880    1.45571691229795   11.02718352754747
C         0.55328484478483    0.59009719302432   10.03963204620382
H         1.34925145999871    0.83546627456027    9.35858647846998
C        -0.17673456195881   -0.58162975576755   10.10338199683037
H        -0.06171884675572   -1.45630116942833    9.49338590752315
C        -1.10895967877291   -0.41548831587565   11.12671675112171
H        -1.84998549163013   -1.10273901320597   11.48740230140232
C         3.92303800511755    4.01683593171993    9.73510348123644
C         4.95390735310147    4.35615594919001    9.18186531183001
C         6.11943105717262    4.75268723270354    8.50296656734243
C         6.83570793294002    3.82174547192912    7.73131308274297
C         6.63698729246131    2.43345959084488    7.51946132223387
C         7.63399170535370    2.01636056191762    6.64392572248818
C         8.42205088458980    3.14095311526135    6.34830061066273
C         6.54852043035610    6.08869784957687    8.56743302413915
C         6.02848774865445    7.19827718848664    9.28122083600629
C         6.85254249884809    8.28036908183844    8.99217964147061
C         7.84166743551739    7.82153555458805    8.10606996025450
C         5.59314573111772    1.57847499853488    8.14455085009060
H         4.62032495899174    2.06149737473850    8.09908195912525
H         5.82674221456809    1.41225554812316    9.19608654183095
H         5.54265084954419    0.61285248877271    7.64784235051632
C         4.52079935248889    1.65461022368086   12.18044870186170
H         5.31063213356986    2.13073289446054   11.59255755915124
H         4.95384361909474    1.30626641820407   13.12044081838045
C         3.41212306648892    5.55346325293789   13.43205409332647
H         4.02716534915733    6.37626463238065   13.79071294669763
H         2.62172316759424    5.37286011624077   14.15748806223681
H         2.95561041787935    5.85039707258925   12.48798626161333
C         9.61696477143045    3.24036294517491    5.47853484055564
H         9.81699841331278    2.29960142497488    4.97463436224557
H        10.48239967267634    3.52147656521183    6.07766032002960
H         9.47050186693034    4.02866692996055    4.74200057273198
C         7.87414647796204    0.63047924690489    6.13848779682470
H         6.92539726208486    0.09459239025746    6.06151063735575
H         8.30837870916105    0.67471480620978    5.13773919607519
C         3.00459158161697    1.79834506087036   15.11442420106513
H         2.28987716558835    1.49107942902386   15.87473309312540
H         3.63831311632743    2.57208609039318   15.54187880826662
H         3.62006788514147    0.93590641024808   14.87105659365641
C         0.98702974934533    6.48715231623635    9.61110715367195
H         1.17172987455253    7.55760869809383    9.54470645561073
H         1.63635555307575    6.06481698283131   10.38456852463049
H        -0.04948279078263    6.33377801956463    9.90502111978620
C         1.28859298539380    5.79268130476134    8.28991535260687
H         2.31357773938008    6.01152126864878    7.97722673065964
H         0.61202146934864    6.12797478182872    7.50090732566267
C         6.70926773621957    9.68653081807070    9.47889951264227
H         7.69586805010561   10.14511707966235    9.56920343317939
H         6.25373885017792    9.69024174737816   10.47152494388553
C        -1.26218431381264    3.93890358197600    6.99993745555801
H        -2.32785228073218    3.72486619407363    7.05050089470830
H        -0.84292476662534    3.35528692474289    6.18438525829055
H        -1.14568462155188    4.99477257439879    6.76675310372800
C         2.24058347013366    2.30144323636309   13.89680821409566
H         1.56731185270500    3.11241391269217   14.18844994459172
H         1.60881465459667    1.50127222991921   13.50146295325492
C         5.84969265315180   10.51638260378757    8.52296633347447
H         5.75725267028790   11.53963959165204    8.88093556423734
H         4.85439463738287   10.08538934448180    8.43973872521385
H         6.29719624591751   10.53348018267689    7.53209612331278
C         8.81625221236285   -0.13944366488594    7.06611488073526
H         8.99043202488964   -1.14429982409193    6.68715389928199
H         8.38716679824370   -0.21291848883494    8.06285312367656
H         9.77161694973177    0.37404875637880    7.14298639672876
C         4.25418946574340    4.30316787065074   13.21574223191003
H         4.71009830504439    3.96646735146074   14.14979362169614
H         5.05538851412195    4.51087736100913   12.50106476539751
C         8.95230558750443    8.57286023741132    7.47650482179680
H         9.90324582691151    8.11124266755845    7.73863974383165
H         8.95190817989796    9.61274346869093    7.78856884363311
H         8.86073121592016    8.51804120899088    6.39250115632484
C         1.89027969353487    1.90835160034404    6.70228662569025
H         2.32849701548862    1.65288571682225    5.73952584939607
H         0.86561162123029    1.54284274688272    6.72162784564723
H         2.45577967147649    1.39222573113624    7.47497285759947
C        -0.61302208523927    3.58127655259571    8.33057503145211
H        -0.72867661563025    2.51228307590579    8.52889992447801
H        -1.11164132454511    4.10648297942995    9.15112136135069
B        -1.72506499786180    1.36443516668134   12.89163489747242
C         1.94674363285195    3.41431606734863    6.92068279456698
H         1.44493730551852    3.94259156873866    6.10513422685676
H         2.98822157239099    3.74760530557346    6.94855595215656
C         3.89840019568518    0.51296984989231   11.38709246157278
H         4.64479500718077   -0.23076187205265   11.11560548598720
H         3.45893569733726    0.91757812269371   10.47259789234971
H         3.11305593974283    0.02073439495976   11.95743191858025
C         4.83618821328755    7.19320884314695   10.16956314553816
H         4.70330997213136    8.16469856228527   10.63802982399886
H         4.94187976048839    6.43542595325029   10.94346983481019
H         3.94008175751683    6.95277491397398    9.60018286380619
B         8.51190337158516    5.63386034178471    6.94356083467896
F        -1.23739809046545    0.75256815152144   14.04290591654009
F        -3.08240248940061    1.16149641179424   12.78689192332527
F         9.83256922534838    5.63259639825461    7.37256295309060
F         8.45804385480014    6.11901806837285    5.64121012008946
N        -1.39268398899638    2.86889552938936   12.94802740314050
N        -0.98435568401856    0.79601632367229   11.66683088039911
N         7.93858014565912    4.20803069050965    6.99947206035226
N         7.65523808296472    6.51613403101195    7.86634719276770
P         3.24862506519948    2.94301773239625   12.49114204880414
P         1.18385985238077    3.96777618085093    8.50542742943556
Pt        2.16406839349759    3.43098729705349   10.51966635495519

