75
CSD_code = GAQYEC | q = 0 | S = 0 | Stoichiometry = C30H30CdN8O6 | MND = 7
Cd       -0.87105067026971    4.00226898182791   12.07787017322333
N        -0.11967907773702    3.50203792362666    9.80607979238846
N        -1.66414864283449    2.75377481763995   13.94667036493158
N        -0.85141677204262    6.21105105613161   12.43369668163487
N        -2.62169793150688    4.05081084789312   10.73172842194113
N         0.84956943610104    3.64415109851522   13.35089515371889
N        -3.38309220325367    3.06986526080933    8.91993239456140
N         1.53391506071156    2.16722033426764   14.82390085231668
N        -0.77162674770980    8.13740800437333   11.37826400354142
O         0.10515011180229    4.66385025445375   10.16171215787892
O         0.00989725344659    2.59206528261561   10.62309538219615
O        -0.44012726401096    3.26803491319979    8.66225883880584
O        -1.98095656265673    3.94355202097341   13.95158117992626
O        -1.66480092268520    2.13853935935730   12.87753707518043
O        -1.38261028866884    2.18622320207027   14.97653907124439
C        -2.00253825021303    8.05478182042184   11.96676356285203
C         3.22631542995092    0.91726582692886   16.04828860649969
C        -0.11814452372665    7.00479294501364   11.69012759165227
C         1.84479360389231    0.90512592905800   15.44226760524054
C         1.09123959968580    4.28398514269632   14.53135138277902
C        -5.15146191631768    2.11530657329811    7.54367339819642
C         1.12702984538066    2.37464854052810   13.56498409078713
C        -5.50966165020717    2.08196797969403    6.20367750200061
C        -1.45062417714824    7.21554141547050    7.31803663452305
C         1.51697601959336    3.37693883427985   15.45397933422140
C        -2.85214107077551    2.89833903560529   10.13759293830422
C        -2.03431779097556    6.85936943895374   12.62225968337132
C        -0.96543365783104    8.80363673019249    9.05596519979450
C        -0.36086976049725    9.11929839817897   10.40874002164957
C        -1.62144475353681    9.78582832335689    8.32788380535738
C        -0.88131632607653    7.51447945370179    8.54293771824792
C         5.78121858999586    0.95577940689214   17.14415152599319
C         4.71088207383081    0.49953971526374   17.89363455482202
C        -2.10131867980286    8.19978294489003    6.59313050295060
C        -3.50481013132662    4.41377966295185    8.72352841382180
C        -6.84248621222346    2.14051208260087    5.83377505465031
C        -3.03132872514505    5.01014389181512    9.85308064268874
C        -7.47616591277005    2.27951933799192    8.14001453658285
C        -6.14535192160634    2.21428422874639    8.51025822588348
C        -3.70282725268800    2.04621648462995    7.95996211707008
C        -7.82749480471075    2.24124023439583    6.80079210783356
C        -2.18303204081788    9.48599875566219    7.09846830747582
C         3.43804096315847    0.48409595509335   17.34922464304007
C         5.57597807870401    1.39310775992389   15.84607670430000
C         4.30578174068154    1.37177514640331   15.29980430017669
H        -2.72974107749878    8.83500162722069   11.86988894161840
H         0.88104834657292    6.78803345821717   11.36661118773853
H         1.77490354551573    0.12979692390361   14.67292613197086
H         1.09019655959210    0.69522472140317   16.20726024719592
H         0.93403688355590    5.34052951797620   14.63117235457733
H         1.02915120994451    1.60185341078929   12.82432614576149
H        -4.74251444184478    2.00639531318801    5.44647667548633
H        -1.37882282924735    6.20840181758078    6.93726440428983
H         1.79509683316503    3.48336759840845   16.48196414491894
H        -2.63175500379405    1.93986395573279   10.57115651817735
H        -2.80833499874048    6.42119239664323   13.22112776582330
H         0.73157724704383    9.09979165649079   10.34348706130788
H        -0.67532358225306   10.11285256747900   10.74126074842751
H        -1.69174782715264   10.79081484079760    8.72034960946025
H        -0.38284976738576    6.73377914282240    9.09885919849163
H         6.77321505309520    0.97159630914934   17.57020685514628
H         4.86539154696116    0.15885535200773   18.90662754524436
H        -2.54428784128943    7.96736641516386    5.63598656826143
H        -3.90485770386736    4.82316786795967    7.81915910768984
H        -7.11096043849277    2.11114224049757    4.78820729117249
H        -2.96375761650191    6.05446453392071   10.08836983640369
H        -8.24089537346192    2.35780776206748    8.89827939405189
H        -5.87303238651801    2.24280066942573    9.55569368441413
H        -3.48762808478849    1.07767547685173    8.42192946377807
H        -3.04718518415563    2.16101964485908    7.09068838368174
H        -8.86676103620316    2.29007437695555    6.51216720185868
H        -2.68929434654427   10.25829227247808    6.53826960092689
H         2.60345564161280    0.13186763553194   17.93804205901164
H         6.40780323055023    1.74997838002035   15.25719863200262
H         4.14716227837196    1.71265676125782   14.28655098580320

