49
CSD_code = GAQYOM | q = 0 | S = 0 | Stoichiometry = C18H20N6O4Zn | MND = 4
Zn        1.78293347884696    7.17112912820500    2.28104260502920
O         0.86048716514548    6.43164958089317    0.59011995272822
O         1.55372250590685    8.50800800982189    0.73132098951085
O         2.24954299173835    5.45081713168633    3.31587172494618
O         3.64781701362204    6.36922801279128    1.89677699420592
N         0.79557679370060    9.06631844599396   -1.83639689698483
N         3.94005428319322    3.36287456084838    3.82252238907284
N        -0.11255707988537    7.38892556251732    3.08256346158014
N        -2.14364378697738    6.57665283142423    3.21260769176885
N         2.74370533078050    8.48695062277384    3.55658190705406
N         4.57403886929979    9.63107807263617    3.93518884279775
C         1.03162653840212    7.56079760709603    0.08208893738767
C         0.59850084693699    7.83226676123586   -1.29099988268550
C        -0.02608586376815    7.05034143680061   -2.24088529033505
C        -0.20156433406796    7.84714585385268   -3.38166777381023
C         0.31877441750958    9.08748937341721   -3.09850162460428
C         3.34717789829897    5.45493442410966    2.69413634286690
C         4.28421063610608    4.35981054615994    2.95831151493795
C         5.55351483470317    4.08785087608633    2.49067694541863
C         5.97003536911117    2.89342909580141    3.09649082707020
C         4.94824055555060    2.47066205115254    3.91290177035853
C        -0.99262152903946    8.41358100567665    2.94913766559486
C        -2.26262021622893    7.92555132447871    3.02944287073017
C        -0.83031503063017    6.30299324538851    3.23400109592800
C        -3.22527935048194    5.64098655426367    3.32994015679024
C         3.09212770142491    8.31903409173315    4.85768190405532
C         4.22917169927036    9.02639955508056    5.11108104908586
C         3.65089725642233    9.27274824788898    3.03006001050896
C         5.72178830618867   10.46455869424694    3.71816264277180
H         1.24572421668251    9.81154718865854   -1.32989988063024
H         3.04705057400520    3.34072591196621    4.28792000517947
H        -0.31226292861039    6.02596020356215   -2.11444698393116
H        -0.65532671384938    7.54726884951460   -4.30608979397235
H         0.37642902930477    9.96706662545593   -3.71025717294416
H         6.10166642898243    4.68660077991734    1.79190060033989
H         6.90988867723906    2.39763166186540    2.95066888473001
H         4.88131124158081    1.60313723561580    4.54069921551301
H        -0.65353845701118    9.41815562814872    2.80166620311452
H        -3.21607801545734    8.40915961731223    2.97027696604124
H        -0.41180958040191    5.32502364274504    3.35429567182969
H        -2.82017400279305    4.64365976240964    3.48801453480609
H        -3.86776184060728    5.90486318804794    4.17247158979357
H        -3.82619218624255    5.63839798366133    2.41854718278625
H         2.50891640548747    7.70377872283767    5.51134455314837
H         4.80968923211229    9.14532711201021    6.00288297763026
H         3.64929313774714    9.57962953115033    2.00443357404536
H         5.69151129531385   11.33485972246795    4.37707511195329
H         5.72976501874449   10.80003944888000    2.68319669147980
H         6.63894116670778    9.90675447973500    3.91644124531301

