56
CSD_code = GARCIL | q = 0 | S = 0 | Stoichiometry = C29H22ClO2PW | MND = 9
W         6.07233845560198    1.01656066525224    1.39811974323939
Cl        6.25993648892766   -0.83508604940920   -0.23886712817933
P         3.79491298470778    0.38659861894259    0.70400494414249
O         7.35836766919715    2.67453812150250   -0.90004701240851
O         4.89225398213404    3.86892420333523    0.94435888283504
C         7.67004521799679    1.50987509699485    2.99067876750523
C         6.39951483591253    1.46549096559714    3.63580010772905
C         5.95576674495338    0.10180179160376    3.63474663901256
C         4.89128658770678   -0.55462571223760    4.28196097589058
C         4.79275206239475   -1.91793152465488    4.17272860824178
C         5.71543035616707   -2.66065133877562    3.41651599630132
C         6.76643970919916   -2.05784460036687    2.77437592696387
C         6.91286443401859   -0.66172346755929    2.87821661451801
C         7.95283381498391    0.23536520251125    2.44698815970831
C         6.86971502929187    2.01463247798462   -0.08808814943153
C         5.29073000565468    2.80037107540137    1.15585455103910
C         3.43942226101780    0.24385269176793   -1.07517531528669
C         4.09273398575369    1.12171520662110   -1.93444680419989
C         3.83799406677343    1.08137454475714   -3.29232212512731
C         2.92858220016376    0.16685324303151   -3.80013911245696
C         2.26794136224704   -0.69998100485969   -2.94613554728238
C         2.51601103090952   -0.66273281232025   -1.58493087815586
C         2.53234413851947    1.59080520295733    1.24427704570271
C         1.46920566036035    1.98737541180916    0.44304474359873
C         0.56511534766498    2.92847792200109    0.90637213171929
C         0.70881277961158    3.47313276212736    2.17039898852245
C         1.76366708697607    3.07680935523537    2.97791168256492
C         2.67258023684795    2.14588293077995    2.51442647175466
C         3.13478290954105   -1.17256693348234    1.38699542906447
C         2.15709426847522   -1.17365745024495    2.37791841656129
C         1.67187101828685   -2.37024614696459    2.87537350235234
C         2.16013665337129   -3.57462101169137    2.39812165742318
C         3.14139728883511   -3.57881729760211    1.42017085613770
C         3.62924988857716   -2.38780199180674    0.91569464533071
H         8.34373030247648    2.35849317903536    2.99911756214209
H         5.99557767118248    2.25468929516706    4.25775688498719
H         4.19166614945923    0.00705760245677    4.88682347668833
H         3.99639230145607   -2.43950412921093    4.68168028896879
H         5.59611080411819   -3.73192407633137    3.35930247542731
H         7.48518680336400   -2.63549165121800    2.21073993973291
H         8.89280809360151   -0.07051275852023    2.00570531797123
H         4.80840731611240    1.82600560296791   -1.52582140652327
H         4.35297753571818    1.75956894328053   -3.95590672103441
H         2.73607249604018    0.12883179682521   -4.86205409718652
H         1.55649206923781   -1.41119307353930   -3.34001285882955
H         1.99564512527687   -1.33969080681269   -0.92189960247879
H         1.35266769143546    1.56801465935912   -0.54575680896235
H        -0.25287501689506    3.23975412389085    0.27356797742722
H         0.00439935166620    4.21022983818024    2.52577296577546
H         1.87945587282942    3.50222812184971    3.96407211129990
H         3.50735007535170    1.83994208928148    3.13321354845792
H         1.76417079580277   -0.24060145601962    2.75537009024369
H         0.90690119216513   -2.35916728177496    3.63846335736439
H         1.77699182573372   -4.50642119768197    2.78773638195787
H         3.52747271722318   -4.51481674025267    1.04422588747683
H         4.39426826392073   -2.39074222911759    0.15339981377541

