49
CSD_code = GARDIN | q = 0 | S = 0 | Stoichiometry = C18H26O2PtS2 | MND = 4
Pt        1.00735936948760    6.24559812292865    3.24120820449725
S         0.28703097709162    4.89883825164156    1.42536619665014
S         2.71499954311088    6.80670877005028    1.72649194206043
O         1.49837348875065    4.13382251754164    1.12828670202929
O         2.03417938871131    7.17228316794604    0.48254726956992
C        -0.98924466398217    3.65313027408155    1.84607968336135
H        -1.03231901859290    2.90671579985470    1.06176357175376
H        -1.94012433044677    4.15742803222324    1.96745654423151
H        -0.69768860704365    3.19480939282679    2.78538001920255
C         3.71844284684003    8.26784466374687    2.19297316394811
H         4.38161528060180    8.52816536773921    1.37655945390835
H         4.27085260624758    8.02368483271919    3.09295105988131
H         3.03576577459602    9.08632173375770    2.39367520776228
C        -0.42405818705844    5.38096031247623   -0.18947621538736
H        -0.43381784472505    4.51245233396159   -0.83650208698555
H         0.22416911380423    6.14980300668240   -0.59654117607164
H        -1.42214924368694    5.76826106586651   -0.02652950274472
C         4.11972106075751    5.73546320352633    1.27642179537235
H         4.66022118177919    6.18989613471303    0.45505952562227
H         3.70143816211744    4.78071105756739    0.97605506149864
H         4.74550654067632    5.62056255550101    2.15328323870791
C         1.94186040308263    7.08949678812774    4.81984438075187
C         1.74571585838311    8.40926117596043    5.23721404426903
C         2.55436117097550    8.94545725864947    6.23102112113919
H         2.39713990190729    9.96710797967085    6.54876811712434
C         3.55737101373209    8.19339667041163    6.81637301165321
H         4.18028085952577    8.62664549756854    7.58547102749751
C         3.75603904915198    6.88546748117345    6.41315504117299
H         4.53534447647083    6.28956666068990    6.86691754779437
C         2.95155138524784    6.34262531118959    5.42329529390724
H         3.11439665606420    5.31331212900764    5.11980472231454
C         0.65287737818455    9.23696333006124    4.62251824365237
H         0.48440161230920    8.92520769427335    3.58937448127782
H         0.89736036369398   10.29640836839060    4.64836501922548
H        -0.27235196652763    9.08120976546900    5.17560909138919
C        -0.58465118833718    5.81484972397540    4.41264769818142
C        -1.85825014696199    6.26443114170207    4.03924990692153
C        -2.98148419716892    5.82951195260932    4.73295542797203
H        -3.95850257884644    6.18554649223787    4.43401710379980
C        -2.86654210314003    4.95109795287998    5.79413664229190
H        -3.74931612778546    4.61986592455558    6.32158506286747
C        -1.61392828410314    4.50623469690301    6.17711994929567
H        -1.51261801686817    3.82442425900829    7.00919229205211
C        -0.48866953863665    4.93820481589997    5.49392025865238
H         0.48535932263089    4.59138847489155    5.81478290186560
C        -2.03948533448912    7.23149577367386    2.89684810166319
H        -1.10313956559122    7.36228378951521    2.34565045683553
H        -2.34655533748407    8.20372461399682    3.27956702285308
H        -2.81463850447885    6.88565368013864    2.21378637266393

