37
CSD_code = GARGIS | q = 0 | S = 0 | Stoichiometry = C16H14BrN2O3Re | MND = 6
Re       14.27263483581283    0.26253859359584    1.27726886047208
Br       13.83290448665947   -2.11723609146643    2.08240001025758
C        12.24126993345048   -0.06245715997229   -1.24449095951559
C        15.85998274281924   -1.03046236864673   -0.98733005992787
N        13.47487434177634   -0.58439064648445   -0.73097289177815
O        11.45294654838066    1.09285532052302    2.23516114093703
O        14.91165400855444    2.99308279274844   -0.00737130345640
O        15.64428572678981    0.93807631219875    3.96393016069484
N        16.00683717230532   -0.65137412937466    0.28823027112768
C        17.11602372853464   -1.00826574504935    0.93355899300550
H        17.19394797310254   -0.69526892591647    1.96659231600466
C        15.11991792417237    0.73695703291990    2.96481502724642
C        14.66622588825498    1.97887179216942    0.47275549594648
C        12.16339188741797    1.21254404696561   -1.78888342426420
H        13.04206092171049    1.83735667786967   -1.85200310557037
C        12.52238481573673    0.83759759943328    1.91990988399660
C        18.12385696133979   -1.74809798812334    0.34452425222082
H        18.99844879670032   -2.01375117321125    0.91530849985142
C        17.97852373207348   -2.14078004487390   -0.97643203823428
H        18.73970504155750   -2.72461716589329   -1.46988723379629
C        11.08671845203647   -0.82930634422696   -1.14190178371692
H        11.13186392704126   -1.81706438463224   -0.70311739174939
C        14.59255608092136   -0.60217741209908   -1.68348771530325
H        14.73915516197032    0.41141471195210   -2.07739864388582
H        14.38387688010781   -1.26707868567103   -2.53288999795804
C        16.82509341571594   -1.77506691372697   -1.64874024100105
H        16.66469394712765   -2.06463834699897   -2.67574657908543
C         9.87541626168252   -0.32376501979347   -1.57095834819073
H         8.98464387167650   -0.92681399830415   -1.47507177023898
C         9.78744707776090    0.94853459456991   -2.12342938397993
C        10.94738559838624    1.70476527713903   -2.22462633725054
H        10.90248473462658    2.70002908265450   -2.64157908661467
C         8.46532115868978    1.48653565686934   -2.57487933973091
H         8.58666775186351    2.42847696830807   -3.10315603864996
H         7.81793704676436    1.65459016817848   -1.71469888733716
H         7.96643013485301    0.77593447948826   -3.23182145839274
H        13.29263103162421   -1.55674856312032   -0.44818089213245

