29
CSD_code = GARPEV | q = 0 | S = 0 | Stoichiometry = C8H12Cl2N4S2Zn | MND = 4
Zn       -0.12281180553349   -0.28406134019744   -2.28914360033351
Cl        1.75648151798127    0.81781011158990   -1.89005968427373
Cl        0.34793080952697   -1.95322316760583   -3.92871190063492
S        -2.55307264214343    0.23230670560417   -2.59971941687904
S        -0.19472030449547   -1.87389669242510   -0.27968845921037
N        -2.46654555866725   -2.48406388949307   -2.94977459299276
N        -4.31688953329924   -1.73467541147543   -2.09159400188876
N         2.11770342690642   -2.56299477842087   -1.51667584378282
N         2.39638073971084   -1.82169115041071    0.50557813134963
C        -3.09740226822567   -1.37098925169276   -2.54308086572892
C        -3.28129342404390   -3.56053243898337   -2.74285588139995
C        -4.43698339343250   -3.09614157642609   -2.21311407140147
C        -5.31307400392992   -0.84194412224058   -1.57331908680800
C         1.47518489407143   -2.07299392236660   -0.44255139100024
C         3.46113156341910   -2.57420450527589   -1.26560582486726
C         3.63495441131435   -2.11972144542505   -0.00307974868318
C         2.13011376162558   -1.23340458832499    1.78661695072431
H        -1.51048366362274   -2.50183314226189   -3.34010549372612
H        -2.97410594542159   -4.55561945721525   -2.98588666178291
H        -5.32519248526019   -3.61118556993933   -1.91235045898658
H        -6.07973987297803   -0.64370633662911   -2.32493553990672
H        -4.82889546494606    0.09791792958293   -1.31051403573952
H        -5.77732699533631   -1.27937180495498   -0.69047381459473
H         1.65306805289027   -2.71928584019153   -2.41556518738885
H         4.17301976895698   -2.89926477731235   -1.99469129229844
H         4.52652856356315   -1.97753329421795    0.57096560014525
H         2.61039548281641   -1.81404334349061    2.57405761742747
H         1.05165310733838   -1.22592728979906    1.94036046780860
H         2.50229126103792   -0.20762561009813    1.81091808601116

