105
CSD_code = GARTUQ | q = 0 | S = 0 | Stoichiometry = C38H59ClN2O4Zr | MND = 6
C         6.23291071873041    4.74227928483166    7.76948226224600
C         7.18971336193569    3.96684167990399    8.47726427345833
C         8.26369243357996    4.59370131805140    9.08954842589386
H         8.98227051505858    3.98679645864428    9.60617406510085
C         8.45221365354804    5.96793316930267    9.06515583982837
C         7.49114779936096    6.73153942786260    8.42108999797176
H         7.60017504926568    7.80340515731862    8.40866676210676
C         6.39570595485188    6.15902712492623    7.78888442143949
C         7.00704237560878    2.45265798723023    8.58745801071391
C         5.68651580232038    2.18001695871253    9.32238587045908
H         5.72329569117328    2.60240188803861   10.32520256170503
H         5.51383260086080    1.10873529959329    9.40239082108872
H         4.85441347193582    2.62727318503313    8.78914902709660
C         6.98552407801744    1.79972341146760    7.19701719988268
H         6.23187046760260    2.24720355626909    6.55003860940485
H         6.76576026151656    0.73826626587480    7.29239953305888
H         7.95876374198855    1.90267346514444    6.71967466107616
C         8.12405698189602    1.76936754500177    9.38682911798912
H         9.09453810415388    1.91049734876200    8.91630984910392
H         7.92513648594534    0.70018250093554    9.42351802006633
H         8.16323895848938    2.13536198537039   10.41021082750669
C         9.64546738138694    6.65731861395214    9.71102614996908
C        10.59947799387805    5.67213900005186   10.39153901523312
H        11.43273070128836    6.21818757597995   10.82972526229078
H        11.00389083215538    4.96074273487731    9.67561427498145
H        10.09706531546331    5.13023201349867   11.18894310347124
C        10.43360858083090    7.41086371713455    8.62968145286971
H         9.82042274734947    8.16722208263303    8.14722348312381
H        10.78174946907053    6.71596750259159    7.86817792669009
H        11.29875275007246    7.90380306879164    9.06838572859826
C         9.14867212878731    7.64663309212006   10.77479252850573
H         9.99281500954107    8.12233132860462   11.26988824536032
H         8.55790550504858    7.12420619755452   11.52391903964408
H         8.53083432609762    8.42548444010535   10.33646435402940
C         4.41533191497305    6.60448466869766    6.44210362111176
C         5.55591283554024    8.47526971286285    7.22971959149271
H         6.47675751406599    8.81087804242702    6.74231636393866
H         5.55611702564732    8.81407731204136    8.26861593502957
C         4.30580911762216    8.92982276896969    6.47253644834520
H         3.59070624942547    9.43139530298114    7.13143811425727
H         4.52734294824977    9.58985872134670    5.63016179514674
C         2.76859102541540    6.55670184369445    4.05820767272561
C         1.71135263442432    6.50371529991176    3.11488059838576
C         0.70830044646957    7.45334097803346    3.18290894608764
H        -0.09195610743990    7.40689272967338    2.46510891180998
C         0.67071865972962    8.47674879818077    4.12883480770004
C         1.68946719064608    8.51777873620239    5.06287542400682
H         1.70473668423108    9.27192500019626    5.83235930405903
C         2.71189529441497    7.57901143942535    5.04013024794368
C         1.70103962568140    5.39901873795949    2.06174620488053
C         0.49626610562834    5.48748257571008    1.11741960587248
H         0.54976517825042    4.67388338087652    0.39669379702608
H         0.49481440147368    6.42422370679066    0.56394780972405
H        -0.43990300633419    5.38879006757336    1.66180123487951
C         1.64651029202851    4.03723019693464    2.76984852056971
H         0.75317284295357    3.97472400162840    3.38943182693437
H         2.51844355552933    3.89696612690907    3.41429752539819
H         1.62229080048849    3.23479511018365    2.03396218828884
C         2.97408292887379    5.48692178405050    1.20756771021941
H         3.85244762849981    5.33234561998216    1.82851707685170
H         3.04468114362047    6.46374642479169    0.73149322012510
H         2.95760879224510    4.72209639551719    0.43377837293853
C        -0.47171712702245    9.48138931894674    4.10048543665933
C        -0.48759519245421   10.19188976459474    2.73954421671622
H        -1.28758600939087   10.92898491139928    2.70888272629920
H        -0.64330050865246    9.48734563196788    1.92799132192481
H         0.45890200450447   10.70120714446539    2.57081230049269
C        -0.34248610752922   10.54988888107257    5.18999484466366
H         0.57872105840668   11.11656166849525    5.07389718870101
H        -0.36555014203492   10.10222509736241    6.18067125480636
H        -1.17621356362152   11.24555646375271    5.11706998022347
C        -1.79881106239315    8.74045706920551    4.31379653596763
H        -1.78508347667342    8.21540927593977    5.26626055857136
H        -1.97322779261391    8.01175243918907    3.52767847598641
H        -2.62820612196011    9.44509688438992    4.31716495960017
C         1.96081940714567    3.37889157299032    6.82406880588386
H         0.87473450555818    3.21113827332301    6.67096523471119
C         2.68638076333577    2.02667979336213    6.69336198678234
H         2.52232937235307    1.62738281967814    5.68946486169413
H         2.31746112040732    1.31003216707120    7.42565805263888
H         3.76159221747780    2.17924151301751    6.83852462237322
C         2.16542639428634    3.99046545022665    8.22261788424969
H         3.21903344979130    4.25745553638406    8.33957280759926
H         1.87023107972750    3.29299198424405    9.00383291950168
H         1.56785246991194    4.89729399968434    8.30841882972446
C         6.56561386135790    5.79830316913810    3.42713500905003
H         5.90023996325356    6.66098126189830    3.35100084723138
H         6.24137110124469    5.02223019117232    2.71830594596559
C         8.04880231383560    6.14296515202778    3.21182221244516
H         8.23086691289814    7.20399549590300    3.37705071244365
H         8.36078279442988    5.89771625761162    2.19915949829623
C         8.77182901043018    5.28897506951365    4.26526626816684
H         9.53430932566576    4.64735309403184    3.83058739704139
H         9.23949553782575    5.91936779609220    5.02111380691778
C         7.63770213847429    4.46753817603071    4.89028028516645
H         7.48645593143632    3.52534318280157    4.34520666569796
H         7.79387488505187    4.26739216322338    5.95044787739144
N         5.45826813684100    7.00708833818354    7.16979602565142
N         3.75273495068452    7.65984086525250    5.98858574204313
O         5.23675549869455    4.16310905822849    7.12868634681710
O         3.80938713016104    5.75105674706527    4.00105172430210
O         2.40930664317257    4.25633022629214    5.85258867715794
O         6.47063639057047    5.28243141488080    4.75487497764086
Cl        4.90860112912240    2.71461288457140    4.15984234239553
Zr        4.24324463502142    4.55938992556526    5.48582823471117

