58
CSD_code = GARVEB | q = 0 | S = 0 | Stoichiometry = C27H25Br2NNiP2 | MND = 4
Ni        3.10708264079821    3.36479960740148   10.44991674054121
Br        1.31773970585503    3.78179629851118   11.71602915573372
Br        2.95207071835713    1.14175760390688   10.32720178788045
P         4.88655519026954    3.44282012828640    9.25527253622272
P         3.55676029681731    5.45506785070637   10.35433624323203
N         4.89455206377212    5.15721677166962    9.32031667063594
C         6.44208207651907    2.97412928852491   10.07157868105233
C         7.67793879825965    3.07999934455470    9.44353146836610
H         7.73387411689450    3.35768127667374    8.39948244536215
C         8.83027178992642    2.81511241914400   10.16051908653510
H         9.79250631672940    2.89433746040310    9.67607699855445
C         8.75339122252265    2.44730499661628   11.49546218841095
H         9.65814557075591    2.23860780103815   12.04668272331920
C         7.52248183722675    2.34156641092298   12.12243254590028
H         7.46222018254709    2.04928061115011   13.15978860572003
C         6.36726122268389    2.60794706266048   11.41095905623198
H         5.39501090513793    2.51868073801315   11.89023068854718
C         5.11446600613033    3.02257324679808    7.51250467124753
C         4.63266842480054    3.86072010189497    6.51207552333579
H         4.17308801497532    4.80522593633406    6.77481995797066
C         4.73793570749752    3.47893495326925    5.18766622303257
H         4.37495319226158    4.13374599879532    4.40901542541668
C         5.29626937469527    2.25282003200940    4.86205157508738
H         5.37211108847141    1.95563046337087    3.82684909487349
C         5.74036155191781    1.40008094434115    5.86078945180416
H         6.15420125055879    0.43630922083277    5.60547734664713
C         5.64528950266197    1.77734174810106    7.18704580173354
H         5.97015443340749    1.11243578370458    7.97583732515586
C         4.09898924032085    6.46450841487372   11.74717163805015
C         5.41432159914479    6.42016543440464   12.19745087787608
H         6.14667649243822    5.81812522505591   11.67594170546033
C         5.77887773025950    7.13291624343415   13.32441646285842
H         6.80302312316144    7.10806454006538   13.66734204877207
C         4.82944229024071    7.86434613863239   14.02020915185738
H         5.11781820815989    8.41810958106136   14.90107424494039
C         3.50716485135840    7.86476975797442   13.60392237443027
H         2.76236391535178    8.40699208577256   14.16652450035044
C         3.13533143221092    7.15979029144157   12.47499651927623
H         2.10039527870149    7.12473169632000   12.16319046902704
C         2.42322481405280    6.47737118414880    9.36562538747813
C         2.33660660704782    7.86259161645307    9.42793774137101
H         2.94997962897018    8.41387658826475   10.12587710447043
C         1.46263219597643    8.52715792673122    8.58678824753800
H         1.39133474064655    9.60387016459754    8.63412629036611
C         0.67779565142980    7.82036123482277    7.68877291449108
H        -0.00331462939663    8.34868916166635    7.03855464404923
C         0.75650193043753    6.43827838592449    7.63030324948065
H         0.13704127546034    5.88476132926407    6.94087803186389
C         1.62504775414656    5.76971918386615    8.47150569423964
H         1.67691965764422    4.68207642086884    8.45125670791072
C         5.94647055811339    6.03921552309048    8.82366382391096
H         6.34283169725984    5.58234482366565    7.90796406021542
H         6.76915351056812    6.11913683322371    9.54572851903494
C         5.39841555431407    7.39490100529216    8.52178640942313
H         4.68233114598299    7.43650691408712    7.71125873570108
C         5.72587377196300    8.48389285203351    9.19248447270176
H         6.43282306703231    8.45879892930618   10.00593317897026
H         5.30898370455370    9.44630641402225    8.95056477533138

