26
CSD_code = GARWIG | q = 0 | S = 0 | Stoichiometry = C9H13I2RhS | MND = 8
Rh        1.74980138057680    2.65299727529205    1.90191114780486
I         0.58981865290063    4.60431900116359    3.25198330158063
I         3.24960367715017    4.31824459329979    0.49694725450200
S         3.50169213021100    2.45316384306927    3.40597891542110
C         0.47034188002616    0.92389562024551    2.34352515515856
H        -0.00014530145435    0.64781132851050    3.27598020401278
C        -0.16921233176239    1.60403972887474    1.26449099505897
H        -1.17621480129930    1.99252973117387    1.27629471668064
C         0.71225925510473    1.62067255698255    0.16605370732238
H         0.49552196665055    2.00959993169696   -0.81729662836053
C         1.90916901997939    0.93750176489735    0.54558831567049
H         2.72577436350671    0.69056710191195   -0.11651519931497
C         1.75474461102564    0.49951383197028    1.88977398020800
C         2.80848585746604   -0.18545285550383    2.72182678262092
H         3.15263690998245   -1.09209100021442    2.21424968060647
H         2.37938777204779   -0.48567180436201    3.68179584417032
C         4.00131574110148    0.74383196706591    2.93778782974448
H         4.56099759936092    0.88295746589380    2.01110034426178
H         4.68184844445911    0.37766768989562    3.70591952053965
C         2.81905255550371    2.19596799951711    5.08040884548044
H         2.27764715873962    3.11587379471935    5.30247570477254
H         2.11638168086631    1.36376820394367    5.06036206027992
C         3.93478836460078    1.98015239446902    6.08281421312739
H         4.46179266803339    1.04446508019492    5.90642794598000
H         3.51868649976346    1.95026578553971    7.08720803423180
H         4.64942424545865    2.79800896975205    6.03130732844012

