73
CSD_code = GARXAZ | q = 0 | S = 0 | Stoichiometry = C31H36CrO3P2 | MND = 9
Cr        5.64264745264847    4.89320720826782    2.58960080063512
P         3.10680573279499    7.40267674400750    3.62783819958313
P         4.59441382370933    8.45663911262617    5.60088175563778
O         4.31510678725660    3.07145855261523    4.52976867711986
O         7.20729096180851    2.37845488664530    2.30982227565304
O         3.96523033134110    3.29336853428395    0.72570581822938
C         4.81563574424154    3.81694276461828    3.79790068519960
C         6.64612283655473    3.38497307346008    2.41396346416305
C         4.59560307470149    3.96285067691377    1.42530325733741
C         2.19323201927226    6.36366068813721    2.39128606614522
C         5.76618376266106    6.61251663400600    4.04848993925127
C         1.89858161183500    5.07456697868928    2.82683728020106
H         2.19108528116647    4.77495695807731    3.82516027276549
C         5.32727058212257    6.71357058956068    5.48248025428302
H         4.42579526406448    6.09166836582451    5.55873816794258
C         1.23890676562852    4.18344487861680    2.00290733641210
H         1.02478044877482    3.18433187264871    2.35046290640753
C         6.05064079265703    9.61011985840729    6.11330776886407
C         1.58489418574789    9.52111875677634    2.75494490655457
H         0.76347368921748    8.87998391504293    3.04924940781511
C         2.88867120480385    9.04230398940252    2.85879867291582
C         3.94304217430187    9.86801131349207    2.49411370229897
H         4.96140841765228    9.51258740484213    2.57551593061427
C         3.84133055014541    8.73062540030052    8.41627503420093
H         4.12501432926764    9.77804691095882    8.45570292690117
H         4.68573514927639    8.11792856203794    8.72000361392793
H         3.04139929444094    8.58057895091089    9.14186696796619
C         5.46905680796849   11.02179444877973    5.98635307402241
H         4.74618831066959   11.22393946147507    6.77359238547180
H         4.97039649582107   11.14523782334665    5.02478888239737
H         6.26263829464050   11.76469392093702    6.06120767808335
C         2.71463607824183    6.94560330957840    7.13010115207397
H         3.41984072717271    6.21695203007517    7.52328554232844
H         2.33814077547095    6.60475259052750    6.16761206890349
H         1.86855206271786    6.98704031287810    7.81605114577743
C         7.07114990042060    6.30217844562752    3.64502194382569
H         7.84578756381374    6.10780325027223    4.37566979247852
C         1.34069843782012   10.79306979411033    2.27503764716506
H         0.32568953011452   11.15381746913647    2.19330018194369
C         4.79693707594383    6.94924068551702    3.06387257002952
C         5.14276658948986    6.90755431441860    1.70807050811816
H         4.41235045135278    7.20266287444753    0.96184274127750
C         3.69826666809779   11.14310628505973    2.01509972206009
H         4.52582753165285   11.77722424113591    1.72949129375423
C         7.40820616010619    6.28966464279132    2.27903236111042
H         8.43692857608050    6.10754749205015    1.98842055845068
C         2.23784184583893    9.32103470920354    6.59322634497850
H         1.44079945672975    9.36071331985458    7.33442853260126
H         1.81013994571822    9.00309394754720    5.64296480771409
H         2.63531510925078   10.32577107305489    6.46376239492192
C         3.33306184410962    8.34136111095584    7.03081516702931
C         6.45844274044208    6.61529957835461    1.30911497140098
H         6.73823869177891    6.67976101707722    0.26449633968351
C         2.39914403144213   11.60756269765541    1.90397198906651
H         2.21111286744203   12.60334837328464    1.53048631723303
C         1.13165666574654    5.86229192475631    0.29524254681147
H         0.83044922557103    6.17286613987953   -0.69531600096602
C         0.85831085184325    4.57698688020403    0.73088110793367
H         0.34696592384489    3.88415722406779    0.07977757029084
C         1.79190905311868    6.75626507022453    1.11962962948362
H         1.98761388401855    7.76144770014369    0.76936783857616
C         6.31933597585114    6.19611490973692    6.51254669602341
H         6.50430106384274    5.13651695840325    6.32859681308906
H         5.90504920718040    6.29456807343420    7.51357508650320
H         7.27081798191775    6.72055083611810    6.48109775940518
C         6.77285979392505    9.47908742331399    7.45476129458717
H         7.73790869407132    9.98097686979653    7.37800081070273
H         6.95652904661615    8.44784720034705    7.73257894337200
H         6.22304084588906    9.95870780116776    8.25707310736548
C         7.07673002855427    9.42049316716991    4.98967992587381
H         7.78313356917604   10.25046356938728    4.98457715420902
H         6.58951681585733    9.39445049557335    4.01515307314559
H         7.64191453453634    8.50118495591981    5.11793244060991

