64
CSD_code = GARXEC | q = 0 | S = 0 | Stoichiometry = C27H25B2Cl2N7Os | MND = 6
Os       14.16457690696330    5.13678805682515    2.31563638590895
Cl       15.99287618314218    6.31943174633138    1.45296765836960
Cl       12.93861245055783    7.03842877869425    2.53301376387996
B        12.56886436267884    2.47081910829952    1.44748075005729
H        11.99228394679116    1.47913469172767    1.17432466709092
B        16.57325691644558    6.11640710309874    3.27784238275155
N        12.13307113912675    3.03620382359054    2.80526169199741
N        12.67562601222792    4.15524403638759    3.29535260885970
N        12.34903007414981    3.58042801990488    0.40818545599714
N        12.98656617217200    4.74983353565296    0.55004014825676
N        14.09219627738517    2.25258940610881    1.49983498949183
N        14.92466648500295    3.27081867001087    1.75245390489439
N        15.34518629274685    5.36743242035483    3.74518350076901
C        11.15968739396681    2.61596445196582    3.62702303593049
H        10.59672409593335    1.73094463433148    3.41132416712489
C        11.07366903526143    3.49702262437992    4.68299983113283
H        10.40386997205405    3.45932756513439    5.51622877497703
C        12.05203676506333    4.45534686827819    4.42484385827026
H        12.31610632839655    5.32420731701069    4.99472537218380
C        12.65984349105591    5.51813204462453   -0.48070436147595
H        13.04957044611791    6.51337289981327   -0.57353580596002
C        11.78475083729356    4.82955687352508   -1.31771320840222
H        11.34144967180735    5.17940580948002   -2.22643794147278
C        11.61760689073850    3.60038424127538   -0.71288489004732
H        11.03239100874675    2.75335109045445   -1.00811283888416
C        16.17005994346918    2.81496833918498    1.65565501201844
H        17.01664490514569    3.45185245822691    1.82726763306643
C        16.14349084709363    1.46136438170597    1.33218037331332
H        16.98131596333542    0.81212979185267    1.18788897111062
C        14.80203784556701    1.14884673844481    1.23845019593485
H        14.31883297994604    0.22263701783515    1.00328243343681
C        15.16682102723861    4.92645234949254    5.03272610636665
C        14.87129114289408    3.57688955112768    5.28739245520269
H        14.84857493580915    2.88077236990870    4.46107739153398
C        14.66644850021716    3.13188939707881    6.57634299222405
H        14.45332266983209    2.08742318001511    6.75080382010364
C        14.73100528137045    4.01502480388629    7.64284471647511
H        14.55943956402082    3.66510045207360    8.64925256385969
C        15.02421394843281    5.34870639701761    7.40650517956861
H        15.07940744633496    6.04386861584424    8.23098608747899
C        15.25256460414065    5.80386268805650    6.12385405477829
H        15.47034455145237    6.84325230228394    5.93780975905060
C        17.92076602999654    5.22062036200534    3.30782950025086
C        18.84870796297513    5.30604597879769    2.27124982372905
H        18.65127866107831    5.96273605901813    1.43678885491829
C        20.01796045681979    4.56605381922283    2.28899613848531
H        20.71830620469764    4.65207075842772    1.47051516234581
C        20.29124040091569    3.72126162469976    3.35070285768147
H        21.20215080956179    3.14051794492632    3.36584442087320
C        19.39002628007051    3.63429946123285    4.39706736010546
H        19.59525728438404    2.98650734752775    5.23758854272173
C        18.22301553207697    4.37891228360623    4.37509420510435
H        17.53897079700535    4.30389308025006    5.20823695879191
C        16.80461155606079    7.56603266544757    3.95933665483530
C        17.89409249873780    7.81131442034297    4.79124526509709
H        18.60180601097555    7.01887193412621    4.98844738667002
C        18.08708378648538    9.05256458340946    5.37224755671778
H        18.94299499427818    9.21800553375705    6.01144947136440
C        17.18933511593569   10.07881607970827    5.13397013106363
H        17.33781497300107   11.04845966314702    5.58753016417259
C        16.10011830829327    9.85173108895146    4.31115046997835
H        15.39052631673911   10.64349599017896    4.11880997158836
C        15.90984988722525    8.60950623798655    3.73113839751203
H        15.05105082054290    8.45196643192219    3.09720705877656

