77
CSD_code = GARXAY | q = 0 | S = 0 | Stoichiometry = C33H30B3Cl2N7OOs | MND = 6
Os       -1.56966499213700   -0.05053158561586    3.86702652974121
Cl       -1.54932905569956    0.38754586473574    6.11872903160906
Cl       -0.94945916769225    2.17360419755094    3.33987975264834
B        -0.11278050669428   -2.53695064556466    2.53667009053024
H         0.40209318351956   -3.47457767821060    2.04094964246521
B        -3.75549243802377    1.60608936428418    4.67407972013008
B        -2.39651324485655    3.46659482324984    3.64610497414062
N        -1.82768733234555   -2.02169820222037    4.28380600108112
N        -1.14048944168477   -2.94841265432635    3.60591532837436
N        -1.45450249433504   -0.53756180566812    1.87113012008061
N        -0.84355396767602   -1.66793323712129    1.50250655375163
N         0.47927566891241   -0.51081428185283    3.86440728353743
N         0.90072327891921   -1.62234894452149    3.24407192393624
N        -3.40107708502726    0.48320404833536    3.73535365774727
C        -2.58574696719172   -2.64049363437564    5.18253586494446
H        -3.22187692572179   -2.08565125688848    5.84603318531355
C        -2.38630633232554   -4.01535096506604    5.08104670973861
H        -2.84865512196204   -4.78420815444940    5.66371416586861
C        -1.45823040340716   -4.16448205973097    4.07043633494346
H        -1.01184183715616   -5.04817111217845    3.66249056251792
C        -1.94200146410819    0.04216923407479    0.78059420862925
H        -2.47570121879359    0.97314376868348    0.82897698056125
C        -1.63725442204595   -0.73859689921561   -0.33216805034039
H        -1.89033000236764   -0.54146362874155   -1.35259307752932
C        -0.93619287215857   -1.81361072119248    0.17357719659724
H        -0.50251385951560   -2.65687221537867   -0.32385043419509
C         1.53734801683695    0.08413375868284    4.40167314404282
H         1.43544001104846    0.99648664471612    4.95641722447145
C         2.67927282088391   -0.66163534147531    4.12443316030861
H         3.68500783411991   -0.44768377884751    4.41967069928326
C         2.22573888055368   -1.73773856299499    3.38650618347343
H         2.75993518046053   -2.56410564680815    2.96335878152423
C        -4.36605914615100    0.02736126519805    2.88968218619765
C        -5.44385960087510    0.86929264920339    2.53929683490387
H        -5.48592374153702    1.85512988741528    2.97487125950885
C        -6.39897760286682    0.46410792312375    1.63522510758711
H        -7.20155121107302    1.13624197903198    1.37177803414703
C        -6.33456549578616   -0.79873839490400    1.06261888360043
H        -7.08520629686239   -1.11542910879507    0.35491977505921
C        -5.30191589903356   -1.65537822346724    1.41525988703730
H        -5.25516853424960   -2.64637121744508    0.98772224734230
C        -4.33110893034744   -1.25730891344028    2.30859563420682
H        -3.55421779710945   -1.95008990631824    2.58798931031857
C        -4.71703756264582    1.21352101358892    5.87646396100231
C        -4.84622566089643    2.11137256417004    6.93586821680823
H        -4.30180263187165    3.04252330501101    6.89078703595796
C        -5.64928248356444    1.82202424408047    8.02318443995530
H        -5.73586431334192    2.53130353931675    8.83355716525809
C        -6.33725508172332    0.62122479022349    8.07689090109089
H        -6.96018064424909    0.38848128151064    8.92860036686424
C        -6.22030755169136   -0.28289867429541    7.03492060888994
H        -6.75477194878133   -1.22202239575818    7.07064322967229
C        -5.41625969535646    0.01004347575764    5.94782611715750
H        -5.33857652397887   -0.70676012673586    5.14097382227259
C        -3.10646707329563    3.76036442227068    2.22983641347858
C        -3.14274225284834    3.83855723732295   -0.19264798557911
H        -2.62313916578740    3.71898622732292   -1.13378504195207
C        -5.12427699329564    4.37523554378184    1.03059766582097
H        -6.16194282948061    4.67915779795350    1.05108940039675
C        -4.44370798528120    4.15604565633381    2.21451675650805
H        -4.95162271870572    4.29744369439192    3.15932452057560
C        -4.47637029013652    4.20804959808936   -0.18154375019544
H        -5.00402730577025    4.37411863761893   -1.11017489121729
C        -2.46992335484617    3.62324376655270    0.99817870142511
H        -1.42435522986948    3.34748754632418    0.97063734356292
C        -1.66438830325947    4.71676077795898    4.35559165462901
C        -1.22339859795739    4.59732636332337    5.67143748278468
H        -1.38099547950146    3.66451847373009    6.19483280955371
C        -0.59101538183534    5.64616009580030    6.31413704124467
H        -0.25802489191565    5.53139146350136    7.33657713934286
C        -0.38237727391530    6.84178493127813    5.64782631502642
H         0.11259942418931    7.66363035720829    6.14649933064741
C        -0.81050795058364    6.97796459634322    4.33882709470820
H        -0.65044561875935    7.90863867782462    3.81189904970116
C        -1.44405778872754    5.92464360732923    3.70183983616826
H        -1.77738568938059    6.04009456248956    2.67985636645775
O        -3.29954261736879    2.81788631690583    4.56578827215076

