69
CSD_code = GASBUA | q = 0 | S = 0 | Stoichiometry = C24H44Fe | MND = 4
C        -0.26348183039156    7.25712776133313    4.28441832385518
H         0.52313448908936    7.97272607622795    4.51131879918462
C         0.10530026117969    6.37232127757626    3.11161563916273
H         0.57099989308142    6.96305241476285    2.32339573442210
H        -0.82467484342429    5.93704132929526    2.71398933921925
C         1.06344208666202    5.22732032696543    3.46082732680695
H         1.21602367516569    4.59719036347084    2.58093919953701
H         2.03140118013262    5.64961314762754    3.74065256738582
C         0.52826220717715    4.39964292481229    4.61869585008973
H         1.22357376013384    3.59160881346883    4.85835586242716
H        -0.42741532753866    3.94890424649209    4.33957148922607
C         0.33382605542450    5.30535303408209    5.82462839563365
H         1.29486988290671    5.74072344020127    6.10799800685294
H        -0.03764727129767    4.73089294919636    6.67698153749980
C        -0.65167544250342    6.43147371242855    5.49382827448006
H        -1.62914138102090    5.97058330033373    5.28573020070073
H        -0.75244519125775    7.06696196478551    6.37261775878714
C        -2.22106345027716    9.06512335195323    5.14757902099495
H        -2.59004823797563    8.22703461195372    5.77159418427071
C        -1.21232337321044    9.85023465616720    5.95692735695301
H        -0.88629131744304   10.72770709495950    5.40053432438720
H        -0.33150800696116    9.25049898752576    6.18064786525327
C        -1.84641958670694   10.31591174290420    7.27469747996124
H        -2.13201134566723    9.44296081040053    7.86732177873423
H        -1.11911839650891   10.88919539620506    7.85491207022556
C        -3.08117661715756   11.16856614349789    7.00427145135388
H        -2.78187348274246   12.08105286269395    6.48302217959775
H        -3.54704311071361   11.46165197442076    7.94862348551363
C        -4.08237923739561   10.40434902448114    6.14456116234077
H        -4.94600408173692   11.03760857558843    5.92511760007441
H        -4.44007804707079    9.52898325305020    6.69228724070210
C        -3.41269927787811    9.95326960852877    4.84119408930547
H        -4.14332491281252    9.41338954062778    4.23113562218673
H        -3.09100875813823   10.84290654238824    4.30025770077889
Fe       -2.10117402809958    7.73090745867751    3.70467079481450
C        -3.63065780487019    6.56991795433579    3.30401350949701
H        -4.33389818191254    7.38072543173082    3.04538157460823
C        -4.21840734562493    5.78374594016022    4.45857342011222
H        -4.35205804648937    6.42843244029665    5.33128784141620
H        -3.55219336919723    4.96235979525632    4.73619651583232
C        -5.57442888293232    5.18718235290161    4.05569034031827
H        -5.98864249911371    4.60748275837322    4.88439145995981
H        -6.27256790837521    5.99783568694052    3.83219740121293
C        -5.41749301348167    4.29810401481739    2.82548159970002
H        -6.39162758554312    3.90301980558676    2.52673705154141
H        -4.77587601111677    3.44846383841398    3.07368209091029
C        -4.79700826211517    5.07628860631598    1.66877712717721
H        -5.46981522853703    5.88418722010768    1.36997891727356
H        -4.65980003490447    4.41852596549979    0.80686650374532
C        -3.44873724535227    5.67067638381029    2.09793025195223
H        -2.77594243221617    4.84510472597130    2.34627252696040
H        -3.01272976026477    6.22835657462301    1.26356427186635
C        -1.32557642987327    9.08230209257170    2.48314090333302
H        -0.76162091439726    8.38348368994522    1.85066046651342
C        -2.55240400364759    9.49541090246228    1.68476633130138
H        -3.12329445636017   10.25680632965237    2.21362486427517
H        -3.20148419260554    8.63355784992209    1.50347183304171
C        -2.12175661173955   10.07337608577346    0.33046469940942
H        -1.59076155402467    9.30720708958637   -0.23969961558822
H        -3.00071204312786   10.37190359402252   -0.24707454527103
C        -1.20503255914965   11.27385575684293    0.54043788140629
H        -1.75956192189717   12.06567397172286    1.04992995278801
H        -0.87767613689275   11.66525967005684   -0.42616899710525
C         0.00472399310286   10.88412332639875    1.38296623283271
H         0.63452175114013   11.76024461751847    1.55645568734848
H         0.60146161499081   10.14591539014637    0.84185113019126
C        -0.44836833455919   10.29052690268958    2.72264326700074
H         0.42603544579926   10.01536411098111    3.31134955780004
H        -1.00121696973205   11.05689040547867    3.26483823391306

