25
CSD_code = GASGAK | q = 0 | S = 0 | Stoichiometry = C11H5AuCl2F5N | MND = 4
Au        4.42985396639172    1.89642669602237    5.81268930835700
Cl        4.86588924717787    4.13520547156426    5.81454254908221
Cl        4.00409773381262   -0.33795218626196    5.64639767817134
C         4.55567259741420    1.94756782151496    3.84979585784464
C         3.42953924711535    2.14551492312587    3.06969396960384
C         3.50208643559380    2.18694170119619    1.67990847122973
C         4.73507321636980    2.02652195989911    1.05500444999644
C         5.87864895155295    1.82632869678502    1.82225376065814
C         5.77291140346488    1.78932927544603    3.21004354680519
F         2.24205259333365    2.30174488559152    3.66549257168308
F         2.40263412617272    2.37886387486972    0.95052997062857
F         4.82045950566778    2.06452717196076   -0.27424683170762
F         7.06297924747545    1.67199523951612    1.22965948674278
F         6.87514224699533    1.59595064934000    3.94292849865512
N         4.29566657073303    1.84461709979245    7.89400180054951
C         5.10417879510615    2.59522893577670    8.64051475753108
H         5.80163264955686    3.22572482796906    8.10966951999554
C         5.04566052466658    2.59047238291940   10.02177395807673
H         5.72077677044522    3.21315717019410   10.58615932334596
C         4.11257015134958    1.78156978183528   10.65180042434042
H         4.04073912392375    1.75738989256926   11.72850990159147
C         3.27378083159350    1.00452198678603    9.86792699891413
H         2.53185046454323    0.35888998054142   10.30925880364230
C         3.39831239049164    1.06278565654869    8.49225578308536
H         2.77929120905328    0.45897610449885    7.84573544117751

