59
CSD_code = GASKOC | q = 0 | S = 0 | Stoichiometry = C19H35NP2PtS | MND = 4
Pt        4.55313050296637    2.92552710251491   12.27821016367455
P         3.06985260037432    4.41607500206197   11.32203290790266
P         6.21043070345361    4.11434913485089   11.08590213119292
S         6.12028270622266    1.34701605546785   12.87360631872895
C         5.48939676460801    0.15548729777880   13.90720607488193
H         6.21801843178057   -0.60630624897968   14.15417510974451
C         4.23537164679695    0.07664961584307   14.42730298044958
C         3.15339796509188    1.00752523101358   14.21985335859420
H         2.26230402967858    0.75070548200605   14.79110091869565
C         3.12562546638495    2.10325178837222   13.44402682238650
H         2.17126171854944    2.63719895747541   13.48390775459321
C         3.99917695778885    5.77245735776231   10.45066307633374
H         3.40002161129045    6.13635607363356    9.61010269024323
H         4.08436455010144    6.58697405895185   11.17441917167635
C         5.39383561453696    5.36481465912240    9.97543603547762
H         6.03439870313620    6.24651302687282    9.87762335981081
H         5.32393335704326    4.89492971414908    8.99135777276971
C         2.09582144673768    3.61953116428087    9.94735487142924
H         1.70083093866596    4.39811603269488    9.28251084754270
C         3.05825146012032    2.71904493051868    9.17814422462830
H         2.52163571886512    2.10369046992738    8.45826323545985
H         3.57254180499479    2.05696027264513    9.88440262359807
H         3.80130768879538    3.30199931124061    8.64008536838509
C         0.95091948138985    2.78261061062876   10.50884586693706
H         0.47711944839002    2.21830037249216    9.70713481323105
H         0.18877340924251    3.39986578970555   10.97849667932625
H         1.33652816034828    2.07513959886624   11.24166324625518
C         1.79377323523108    5.35760010154432   12.29845040753812
H         1.08644676046992    4.59020579668742   12.63382464837370
C         2.45510195879498    5.94815332130896   13.54091316336331
H         1.70105660203896    6.29853281318503   14.24286799906647
H         3.09321329715388    6.79212055727563   13.28654384593857
H         3.06153170629951    5.18780574568370   14.03494748812723
C         1.03565569606398    6.41348538225152   11.50153844486102
H         0.25454429596760    6.84697836665719   12.12425288302816
H         0.56396099884486    5.98486328814903   10.62037723948603
H         1.69579455028759    7.21854432464496   11.18696729429781
C         7.49240217436448    3.34645717075062    9.97873225246008
H         8.12852960975776    2.78115760612141   10.67099139489341
C         6.82027664203903    2.33449172428789    9.05441068819323
H         7.57007602100424    1.73583268014494    8.54090001806500
H         6.20949961071226    2.82666339664366    8.29950231919874
H         6.18746309870575    1.66399179093936    9.63551059990398
C         8.34549783785248    4.34149388950042    9.19962022695211
H         9.12875781524328    3.80791850147646    8.66325310044343
H         8.82127306587561    5.06313246749182    9.85957591705837
H         7.74845550947725    4.88149459783056    8.46760753402526
C         7.21182580032333    5.17965475707047   12.24224969432226
H         7.63517024697467    6.02792346687255   11.68882956452233
C         6.25583586275259    5.69179018055288   13.31728536881464
H         6.79887847340950    6.21309956445465   14.10391288000405
H         5.72701591283676    4.84313156288226   13.76759277106977
H         5.52182149540676    6.37694909838330   12.89940583553976
C         8.32887193514253    4.36705257133815   12.89003604483059
H         8.77101849134499    4.93094913829894   13.71006609749983
H         9.11949257250699    4.12962533259485   12.18235182902617
H         7.92941921052785    3.43665285590090   13.29267731921981
C         3.95981818331733   -1.01821904609740   15.27095184380881
N         3.71998844189466   -1.90791586673714   15.95832486210038

