89
CSD_code = GASKAO | q = 0 | S = 0 | Stoichiometry = C29H55NPSi2Y | MND = 8
C         8.98724986285927   12.74765909357599   10.80036005900498
C         7.64492224270927   12.34260081931613   10.53681093302419
C         6.87767822896573   13.49338568165709   10.35885389687441
C         7.71046119376342   14.63192065895129   10.49258372469699
C         9.01522649715357   14.19510263459198   10.74682088129877
C         7.10712630374852   10.94405917983897   10.47094614858878
H         6.07373221745200   10.96636860730886   10.13313299890399
H         7.12191738883780   10.46449381449332   11.45149343058464
H         7.67393595825049   10.32571538553896    9.77457541026476
C         5.40006602571910   13.51231622483732   10.10194321785930
H         5.15364009429424   12.99615756547518    9.17178702420346
H         5.03641317029240   14.53342844195843   10.02708931763734
H         4.85977189398433   13.02244039528750   10.91331232422907
C         7.25828979242683   16.06236101157083   10.49975360824137
H         8.05400587323686   16.72488211530424   10.16179414195773
H         6.97037760331708   16.36796678797149   11.50825927615831
H         6.39971354816499   16.20679779682736    9.84752918168236
C        10.16696286418299   15.06796875939602   11.17180347470815
H        10.15758056885857   15.21020598143509   12.25659181595246
H        10.09287330827775   16.05662878968390   10.71711853542961
H        11.12585107373532   14.62861728839435   10.88697555027840
C        11.28622258715243   12.21872518251412   12.56071097848157
H        12.10686892649289   11.53282833896421   12.76510639152452
H        10.53346191587173   12.10848833135416   13.33850137321798
H        11.66211582145289   13.23692598812268   12.57671799164264
C        10.09744961512141   10.03688566835450   11.26127527296926
H        10.99290382620544    9.51928048925829   11.60090725219646
H         9.73713455162917    9.55888766781734   10.35407213750335
H         9.33642855992746    9.97112249876100   12.03382564951026
C        10.58950324307663   15.34162059900522    7.36870849738522
H        10.80307790385647   16.00891779647311    8.21330641943501
H        11.55991797872936   15.13438667203941    6.89848734864444
C         7.72775457201984   16.38268672496400    6.85202923595716
H         6.99648283667015   16.58946776977179    6.07684390014759
H         7.66034205035649   17.18565135756891    7.57910753539329
H         7.43351434063344   15.45564972081823    7.35022801938300
C        10.06071279542200   18.02808628244524    5.67029378299849
H         9.36749300544866   18.50152142139993    4.98187481532557
H        11.03820615713695   18.02176619968417    5.19829381377701
H        10.12801772963394   18.65860414554888    6.55159153493952
C         9.41828774963495   15.23912601163704    4.50424623440084
H         8.75975709842835   15.70715796370068    3.77964919653505
H         9.05194351713004   14.23282331726995    4.68711247961608
H        10.39801747490037   15.15537749196709    4.04490516615076
C         8.03449666784521   12.17956606851277    6.89109930430769
H         7.23001714950539   11.80571682099154    7.53485051004787
H         7.55463113484099   12.84155477233937    6.16124436797090
C        10.28896421461366   11.41483318736029    4.92089431325704
H        10.80508923159038   12.23794814912944    5.41805697800639
H         9.91897961940890   11.78742132959401    3.97117298641313
H        11.02134437022128   10.64454951663110    4.69855716203644
C         9.58388683527120    9.54568138534747    7.30558766612439
H        10.11724072885079   10.10292325522816    8.07559678505447
H        10.27711297000730    8.83584960997069    6.86404123304663
H         8.80040481636799    8.96999435268763    7.78987832187708
C         7.73601107662042    9.67920146431177    4.84469133066873
H         6.91930637083326    9.22364075912047    5.39603040688538
H         8.29524961254296    8.88049090601749    4.36662895841072
H         7.29896941284226   10.28831038268488    4.05986612165818
C        12.70973145640000   11.82037664248331    9.30899859324643
C        12.87840880104523   11.79465503632308    7.78112097816030
H        12.23478771292763   11.01736280113239    7.36099580972315
H        12.56430513042487   12.76302334148068    7.36889902072195
C        14.33446448017771   11.52158752653178    7.40614376062196
H        14.42756656542656   11.50989076784093    6.31435846169084
C        14.75727998431574   10.16601371811312    7.96905146875325
H        14.13246236762460    9.37612913847986    7.54617104355687
H        15.79422788020571    9.95535997042306    7.69805669005060
C        14.61126614863987   10.18816599236381    9.48899248546419
H        14.90901716556855    9.21603835932024    9.89967133959120
C        13.15520998974875   10.46417782125068    9.86155730712646
H        13.05052393490700   10.46938432627537   10.94934831373497
H        12.50739819967087    9.68201774519738    9.45810602224969
C        13.62622538125838   12.91332283786085    9.87795475034829
H        13.52139670286036   12.94186411852136   10.96506868222479
H        13.30996090981007   13.88315547669394    9.48164380107940
C        15.08113391136457   12.63640349397146    9.50371659150756
H        15.71805858719603   13.42369118656001    9.92353981469798
C        15.22629877963202   12.61918643331517    7.98334112762390
H        14.93756233099332   13.58858157051050    7.57094562406584
H        16.26810498769448   12.43535336029391    7.71109685205401
C        15.50438631401680   11.28243695734452   10.07204343322527
H        15.41973397248194   11.29247531808496   11.16160135215161
H        16.54845610005312   11.08295088944130    9.82059125576118
N        11.31217501411856   12.13037261992183    9.59322775581804
P        10.48859827730230   11.81420264639893   10.93243287021262
Si        9.49879033124138   16.25127635131911    6.12742228180250
Si        8.84526751250736   10.73901767777936    5.99424388080385
Y         9.59778689228729   13.35587924304959    8.23253220714017

