54
CSD_code = GASMIZ | q = 1 | S = 0 | Stoichiometry = C26H19BrN5O2Ru(1+) | MND = 6
Ru        1.97004760478212    3.88562973975179   13.52102371871723
Br        4.37626922956356    6.61745315061724   14.23878537153620
O         1.14839883182629    2.60233346989410   14.94199351799373
O         2.02225363718686    1.14594726168236   16.38275753959058
N         0.94107514656842    5.48606823708013   14.03681749624177
N         2.58047851481176    5.13396729907702   12.10050572161628
N         2.90871382024310    2.18771243633960   13.00195921232576
N         0.61397031579161    3.13747866901820   12.28707891212046
N         3.29811900332029    4.20590134015228   15.11437490935783
C         1.05182283845998    6.55437346668532   13.21343896307773
C         0.39115710915378    7.74987879852454   13.49163835127667
H         0.50282608252427    8.59789906751715   12.83708006893496
C        -0.39872063875334    7.84044840369601   14.62309498939298
H        -0.91418428525823    8.75784311965456   14.85778190775301
C        -0.51479790517628    6.72962211925797   15.45060912112178
H        -1.12482720836538    6.75817975981029   16.33841058745813
C         0.17076119992557    5.57611303763409   15.11919490208457
H         0.10113896418660    4.68154511003753   15.72801099992330
C         1.93891586367733    6.32944179361031   12.07410848287543
C         3.44636057210645    4.85594561867163   11.12432300249321
H         3.94920031313979    3.89818689862626   11.18756079111966
C         3.71515027046468    5.72465369773500   10.08529662056320
H         4.42887281466944    5.45153779962655    9.32567893505462
C         3.05307588326267    6.94556287574969   10.04141294980511
H         3.23695286135366    7.64529400711586    9.24254320312127
C         2.15701550348236    7.24729876977156   11.04919677780155
H         1.63016853583097    8.18668317731711   11.04337733445427
C         2.01945739672937    1.25146501762936   12.60354002450264
C         4.13594061386935    1.80105601293085   13.34429476592334
H         4.83246957475617    2.58682533719758   13.61579867418118
C         4.53235112895670    0.47645852633507   13.35905691093544
H         5.53459997326182    0.21579076539194   13.65687958802070
C         3.60887025805050   -0.49788506578375   13.00766150151770
H         3.87009482362067   -1.54318877087464   13.04243099190146
C         2.34509714553745   -0.10257661757166   12.60692870328489
H         1.61314221049802   -0.84056691100419   12.32532769540583
C         0.73510663040306    1.79747037778511   12.15818209405218
C        -0.28059521070674    1.03294700118750   11.58709364636516
H        -0.17447256674966   -0.03562702064128   11.50327222675939
C        -1.43057418158269    1.65336642985067   11.13530080661920
H        -2.23077034533890    1.07577493654618   10.70121429833158
C        -1.52983519806724    3.03363116053323   11.24828450337349
H        -2.40236872824438    3.56105646558330   10.89930581509778
C        -0.48854156176016    3.72955485698247   11.83299364493862
H        -0.54193209648321    4.80723290976435   11.93613914996078
C         4.21922140324000    5.12398133581486   15.40210435567344
C         5.06825544460096    5.06805956508590   16.49530318986261
H         5.78728467052269    5.85586437775840   16.65320187985616
C         4.96656647028616    3.98995500867631   17.35947081244658
H         5.61935590815217    3.90831506702552   18.21387636383018
C         3.99519044902508    3.03762591647875   17.09873445236303
H         3.83365596913000    2.17710409426159   17.72915439412877
C         3.18542963047722    3.18124687186844   15.98391032442156
C         2.02518530903275    2.18516322653407   15.75788479843989

