108
CSD_code = GASPIB | q = 0 | S = 0 | Stoichiometry = C47H37BF15N3O3PdS | MND = 4
B        -0.78451275330902    6.25341386501720    3.52534594486691
C         4.19274326524642    1.74991288469177    5.79622295098455
H         4.11640675941952    1.63038588054109    6.88007803652838
H         5.15833661548246    2.21170595188193    5.57918192159938
H         4.19143185215798    0.75666247928434    5.34135495575785
C         1.46825405737230    1.71712012900478    6.01810285961716
C        -0.05385445022444    0.14461751539769    6.75721392976653
H         0.06897570164628   -0.83727742346635    7.21037510823359
H        -0.98071889175352    0.15336955230746    6.17651507841949
C        -0.01998093556806    1.29149349058235    7.76784644954919
H        -0.99631216382942    1.75745984091277    7.90541700048082
H         0.37336089546692    0.97977583019961    8.74242494396245
C         1.69068683981739   -0.53853770437474    5.07499273359134
C         1.54444792816093   -0.53407695908685    3.68141133108316
C         2.10656982453429   -1.57906443235159    2.95988782705453
H         1.99429237919391   -1.61831679738356    1.89010084722996
C         2.80102540561802   -2.59183126053384    3.59372243995737
H         3.21713978270252   -3.40284284424854    3.01546695133499
C         2.97049975694156   -2.56193879714928    4.96201371396393
H         3.52951678469771   -3.34802626268133    5.44410692323955
C         2.43214544191785   -1.53361863250057    5.72560027561008
C         0.75115433995442    0.56224790266618    3.00435828196289
H         1.11195158528338    1.52964853773021    3.39732493960528
C         0.93289539837321    0.57788641200853    1.48703419404377
H         1.98446676922054    0.56281084619676    1.21229548500745
H         0.49325739765972    1.48293524040529    1.07965755344148
H         0.43334245069384   -0.27151156955986    1.02564653485799
C        -0.74453615508031    0.42319317684901    3.35961550292070
H        -0.95078564779386   -0.54793657549701    3.80671080479369
H        -1.35307744132439    0.49949338126590    2.46394861077427
H        -1.05019995800698    1.20935897169382    4.04485283314115
C         2.68330961881459   -1.52811650863157    7.21842027271988
H         2.31086852037389   -0.59145993747376    7.64132957351606
C         4.18203723082335   -1.58969677906308    7.52888711881770
H         4.61291737131016   -2.53592181228814    7.21471788562544
H         4.33866180226527   -1.48733822403099    8.60051030296616
H         4.71095910053107   -0.78622378206171    7.02431782230708
C         1.97296424930695   -2.70760164171718    7.89222182854469
H         0.91336877526873   -2.73529263651920    7.64525096196189
H         2.07463505577150   -2.64027952422709    8.97314266279412
H         2.41128594954494   -3.64774253958967    7.56776044906993
C         1.07820577036888    3.54379494214284    7.53614346460967
C         1.24518387002032    3.83438565088013    8.88957804742888
H         1.19517880672263    3.03771943568100    9.61518936801423
C         1.47935876937197    5.13391759400441    9.29977614185192
H         1.60721969929909    5.34721642275022   10.34982530764526
C         1.54002035739078    6.15614493470264    8.36732499769750
H         1.71030833380192    7.17282700008940    8.68362011270710
C         1.33333482194912    5.88139744808944    7.02462823262008
H         1.29600412910769    6.68283845902443    6.30974757884440
C         1.12298846467771    4.58077297277573    6.59354639503262
C         0.37224624707679    7.12603386986509    2.76471258989101
C         1.70178936709138    7.24124914231651    3.14258959090993
C         2.61176893804355    8.05278489000943    2.47027920702589
C         2.21138383505365    8.77996605042335    1.36035256032563
C         0.88734061425218    8.69191094273952    0.94710166143044
C         0.00504101941349    7.88468486277749    1.65332562914886
C        -1.94766676557226    7.32116661023133    3.96425590892081
C        -1.66510535968937    8.23224666195100    4.97514696166498
C        -2.58811243127998    9.15609432509159    5.44957058079998
C        -3.85832000545884    9.20307233293782    4.88941610270431
C        -4.16956444720743    8.32844538057883    3.85648068111000
C        -3.21992813669546    7.41181859915098    3.41207653969850
C        -1.34865013459588    5.00938840637869    2.63769115559402
C        -0.83099495131266    4.56909889435428    1.42951913711718
C        -1.34136062136157    3.46834410966859    0.74774713304284
C        -2.38925207124076    2.74369995792877    1.29499222446572
C        -2.90363144002695    3.12664547014960    2.52777627187807
C        -2.38163765482117    4.24102937839619    3.16982905626585
C         4.29377349513492    3.91421690124031    2.74611060432621
C         5.10504822495614    4.76523614244838    2.00619271240092
H         5.22140860616758    4.60827863936361    0.94561394717929
C         5.75371069074518    5.80704633239741    2.64574466896027
H         6.38574188830620    6.48547136551918    2.09425396143047
C         5.57133774554939    5.96502989070797    4.00698771773061
H         6.05646842264222    6.76608304774037    4.54057588573814
C         4.73070859251493    5.09162198763938    4.68827614414924
C         3.57775236967916    2.76851764580628    2.10840901464579
H         3.58281606927799    1.89950433994107    2.78565462859210
H         4.03328502606530    2.50366652547426    1.15721322333792
H         2.54203211157161    3.06928859325330    1.93029722070508
C         4.51197559065573    5.25765097325634    6.16148371558211
H         3.93041648082862    4.41625987289345    6.56647351050165
H         3.97209270363930    6.18529417890033    6.34581733778145
H         5.46965641364763    5.31563615758762    6.67694359233880
F         2.18822401104421    6.58358550432153    4.21181828233144
F         3.87992263148822    8.14578784481210    2.90432167537343
F         3.08369505147548    9.55573780765387    0.70778824176981
F         0.47196723689037    9.39157232291348   -0.11378393520693
F        -1.26268580403629    7.84579970057087    1.22085546463668
F        -0.43869458809343    8.25805730522590    5.52616046273000
F        -2.25745706144759   10.00109558002659    6.43709208172843
F        -4.76252700082012   10.08225194767033    5.33303686679802
F        -5.38298427719111    8.36950463707018    3.29542761355423
F        -3.58655379501311    6.61012747918104    2.40390970029545
F         0.21816738270661    5.19049533859191    0.86167998494724
F        -0.81242185075372    3.09659522638001   -0.42903245877979
F        -2.88101394231898    1.67499136829158    0.65436635553430
F        -3.89170346699865    2.41480036125814    3.08455039451621
F        -2.92621701275053    4.58502255222885    4.34357796054777
N         1.06375010969965    0.46795034697479    5.86582745076881
N         0.89560432025335    2.22663704050146    7.12018535428972
N         4.11480846920584    4.09069331076266    4.05788197342385
O        -0.49214289060880    3.20564719910467    5.07817792639224
O        -0.29927646161035    5.64308356664614    4.82012320010999
O         1.34346523541783    4.14426816449453    3.84685157423139
Pd        2.70643320881857    2.87305464322627    5.00937465835014
S         0.42133652550351    4.31120416849464    4.94813280648357

