74
CSD_code = GASPAT | q = 0 | S = 0 | Stoichiometry = C29H37N3O3PdS | MND = 4
C         8.25558446534647    1.90559605574837    0.78039207792520
H         7.90578349623569    2.45346900348942   -0.10473998936540
H         8.22355512173396    0.83151056230139    0.55165271172283
H         9.30331067097582    2.17004027500857    0.95786679415544
C         4.93886205667753    2.78269129517452    0.74662918125105
C         4.17159176787339    3.54119291241789   -0.12775309359229
H         3.35458769591986    3.07817408131618   -0.65796327762938
C         4.47357638256176    4.87748235491434   -0.32095738993835
H         3.89512778861833    5.48433402386609   -0.99983161995517
C         5.54882720964204    5.40989690976713    0.36924719974328
H         5.83303391084858    6.44143133862259    0.23560036517115
C         6.27540983156605    4.60608380907636    1.23780182548127
C         4.65320239703602    1.32892252659005    0.94202422778863
H         5.59667188762390    0.77434860280901    1.05669311532584
H         4.09585156527573    0.92972611591367    0.09823075506257
H         4.05882894345230    1.18585545069729    1.84594147361555
C         7.45761855989671    5.14352098125317    1.97077090877774
H         7.30343567487559    5.03511154888818    3.04804093678074
H         7.61637026162308    6.19319334525951    1.73651839380974
H         8.34897469282445    4.56744416725358    1.69204506315739
C         6.50268548361152   -0.36176632420518    3.51204642394894
C         6.61154282751116   -1.50797765574456    2.74466202383237
H         7.60081108682752   -1.83524586897349    2.46457979634351
C         5.48001254179454   -2.23272840479803    2.40356568097703
H         5.56578568408296   -3.11831077179969    1.79264749366328
C         4.24286022862704   -1.84777016969882    2.89770019264861
H         3.36627935205921   -2.44013434177265    2.68076856422655
C         4.11962146220405   -0.70638501204380    3.67099680364114
H         3.15385094492615   -0.40813381591584    4.05310359297498
C         5.24725857499382    0.06423557397764    3.95103153114364
C         5.94406597452302    2.33189238383924    4.35092485905946
C         4.48925677935751    1.38719609176092    5.93609932331983
H         4.74462411582249    0.52419009001813    6.55188830664292
H         3.40062195607491    1.43551765845971    5.81323346235398
C         5.07684169022524    2.68634311302544    6.48303113588652
H         4.32385402173010    3.38616553332065    6.84854218130897
H         5.80818943190931    2.49766989738785    7.27494966213336
C         6.14993846603086    4.59542530106298    5.28251195895895
C         7.46146721260995    4.98702827281220    5.56957709184182
C         7.76220340243338    6.34535498188097    5.54429462957300
H         8.76858818585883    6.66951831729066    5.75722254339550
C         6.79377309595488    7.28597151953840    5.25661368239593
H         7.04427434155700    8.33651926081187    5.25155678758391
C         5.50173279790255    6.88420121485770    4.97541192839241
H         4.75206212625817    7.62757834394704    4.75210907558203
C         5.15875203202868    5.53945026030554    4.97863580498720
C         8.54407710221845    3.98144425547834    5.86775716310821
H         8.10548359620816    2.98721880062812    5.97878526081778
C         9.51711153279190    3.91350332654809    4.68534980821505
H         9.01299873138126    3.48234763398026    3.81024130301759
H        10.34604568155113    3.25649048424290    4.93585486445485
H         9.90881919916295    4.89897601441752    4.43534592532346
C         9.28185963960874    4.32566026885553    7.16401618179319
H         9.88771935384062    5.22283386698740    7.05488864641063
H         9.93929157005126    3.50364376685644    7.43474144613515
H         8.57643032787761    4.48334904183518    7.97804183114339
C         3.73699400577748    5.13028406304809    4.66269488969161
H         3.67734040421760    4.03887044758202    4.63689064739913
C         3.31046831689557    5.63256061040853    3.28212782937443
H         3.31404666938628    6.71820908141854    3.23775854891329
H         2.30435771032234    5.28638700743710    3.05481324021149
H         3.98534627471697    5.25498427534600    2.51887548581109
C         2.77716097796666    5.65189279050091    5.73647360944184
H         3.08715883605635    5.33089616124366    6.72904359083780
H         1.77004822501359    5.28362210301900    5.55270549738173
H         2.74963772878657    6.73854815761375    5.72964306347221
N         5.95648690702353    3.31800436807460    1.43200367576381
N         5.14152243503136    1.28159636932665    4.62946952523075
N         5.77792667513160    3.22609332256957    5.31627349807642
O         8.77002499653143   -0.92201269769479    4.59801649866503
O         7.57889764520588    1.00636255607980    5.47687714060495
O         8.68558531398435    1.12938664530554    3.32154502039692
Pd        7.15265952187822    2.21064589175048    2.51309718668041
S         8.01524242385506    0.26667057741677    4.30155442553576

