55
CSD_code = GASREZ | q = 0 | S = 0 | Stoichiometry = C21H28MoN2O3 | MND = 10
C        -0.70732666888796    9.90141546059596   11.94124350828877
H        -0.44501887882247    9.70342280028013   10.91100800144732
C        -1.78464273142295    9.31662421130189   12.63612066346074
H        -2.48762487887425    8.61501243740085   12.21010096838312
C        -1.91032623267102    9.96615211601659   13.87849127251471
H        -2.73310170238652    9.86006930518875   14.57368809901596
C        -0.89638208353257   10.96392054077864   13.95621878731937
H        -0.84971790697781   11.76023261070610   14.69173853749875
C        -0.16229734186462   10.92040652748193   12.74185718883599
H         0.58788422925775   11.63758725756936   12.43473625779042
C         1.94056870290746    9.29691440262240   14.51455012386998
C         0.30492839691191    8.65702008492606   15.81475624491466
C         1.17721243359691    7.57901723144321   12.41685854502128
H         0.44048356016054    7.38293604680581   11.64404593434577
H         2.16185663217250    7.77210088012284   12.00637105669787
C         1.07738965357300    6.74409550918328   13.56195441045997
C        -0.26282834674575    6.68214895236283   14.08085373227475
H        -0.37333235085649    6.12601676175565   15.00924537318215
C        -1.40324317816271    6.39019576210741   13.17346575890965
C         3.45904687886490    6.22018978689747   13.55637563484320
H         3.96865014634557    7.13396249046201   13.89528527592494
H         3.35106634317191    6.25450767904913   12.47256111455184
C         4.30125513318062    4.99509323819136   13.91036578472515
H         5.28545873245657    5.10030947423480   13.45166076478581
H         3.82329166713659    4.10647711774596   13.49371586390454
C         4.42432754479582    4.84135547124508   15.41978632018778
H         4.99443338321026    3.94455169569509   15.66663528756266
H         4.94874345267328    5.70369288115083   15.83678519767836
C         3.02195147712809    4.76331860464230   16.00729665298109
H         2.51669869492931    3.87165195486285   15.63133617762919
H         3.06066379417821    4.70397184085032   17.09575295163613
C         2.22286056314991    5.99923486203399   15.60474012372512
H         1.22669152414986    5.93574339745005   16.03936376842593
H         2.71194892123824    6.89929483421422   16.01077701947354
C        -2.95915161784170    6.61774272195234   15.13875054710555
H        -3.80633493547445    7.31693224431348   15.14302705598771
H        -2.12567440430680    7.10296457584612   15.64613309969670
C        -3.38022283707372    5.33228121746033   15.85361462135662
H        -3.63762473581872    5.55485731941265   16.89000859139100
H        -2.54534876318254    4.62829383018677   15.85124085584354
C        -4.57303433395385    4.71621225201455   15.12491943101120
H        -4.85017177405116    3.76852319629412   15.58991163292111
H        -5.42965425099122    5.39062663365306   15.20190665229215
C        -4.22954948629740    4.49832030795379   13.65272547750221
H        -3.43078649632092    3.75869390177648   13.56889405590654
H        -5.09890454528508    4.12436251549565   13.11029613132734
C        -3.75711622633447    5.80734298688237   13.01963488144726
H        -3.43146887251210    5.64624617863508   11.99056184274617
H        -4.57125896507215    6.54289519262220   13.02905371986974
Mo        0.15185270333957    8.93915023682666   13.92090569139870
N         2.13796870844075    6.12001883823987   14.15778586340804
N        -2.63098840543346    6.33371911493626   13.76257532686217
O         2.98666654087937    9.55521586022313   14.93118411729695
O         0.42627168276463    8.52200185435839   16.95554425528594
O        -1.29083854939430    6.17625479351357   11.97118374705161

