59
CSD_code = GASVED | q = 0 | S = 0 | Stoichiometry = C24H22Cl2F6N2O2Ti | MND = 6
C         0.46634035309472    6.98705506092897    9.01522764660263
H        -0.09291295026731    7.19091647839557    8.10584487039519
H         1.08458263950000    7.85773733951488    9.23211486378436
H        -0.21909386579149    6.83682690904888    9.84645968052567
Ti        3.21534424259721    3.62028691526849    9.89672995096914
O         3.27651949604885    3.75565267105707    8.09763944067990
O         2.99970349606938    3.47125785646990   11.68274401012915
N         1.80429861584702    2.05951088674607    9.77249607544660
N         1.56659739378803    4.92657903459495    9.76311004147292
F         3.45184207476505    3.88503616810590   14.17214366928446
F         1.77471906619070    2.63038263400940   14.66489106585707
F         4.16013293770053    5.59529808207411    5.51224730915733
C         1.51276722412970    1.82397463288209    8.41173716298463
F         4.19131873623085    3.44958410042619    5.72325123398489
F         3.71730389534814    1.75846070115781   14.40886458161596
C         1.36051681817291    5.79734220455066    8.82717718946751
C         2.60481430333024    2.51649531786367   12.43119138653473
F         2.44794572486353    4.43713900570110    4.93958932550709
C         1.96963052092504    5.64310376845255    7.54289608685211
H         1.72231914623007    6.34769197264531    6.76541487030573
C         1.02091139065783    5.09397904199531   11.05401105855027
C         2.86067268593370    4.64300687350139    7.28079241579526
C         1.59287478032982    1.15313500398023   10.67271665495744
C         0.45315860650241    2.48787634708817    7.79665781636203
H        -0.19567453190340    3.12249654091561    8.38630656508361
C         2.89971806947679    2.70181812217175   13.92285670319560
C         1.94670722911089    1.38726612711283   12.03804007641244
H         1.69284518934148    0.64075763980432   12.77315294651500
C         1.06962950189536    1.53637831727437    5.66422080763278
C        -0.45565312865585    4.35212317406916   12.79981843810318
H        -1.24492430989321    3.69594153531683   13.13632700804426
C         0.09455939782865    5.27000279827470   13.68809890986790
C        -0.00122853461175    4.25678078143725   11.49772506045486
H        -0.43138403451033    3.53118566442245   10.81955732211822
C         1.56972522770675    6.02864182515109   11.93230637987182
H         2.38529812012755    6.65404139413421   11.59430556185708
C         2.12141661512658    0.87489438230268    6.28912533427716
H         2.78428469382040    0.25626247916567    5.70306668303091
C         2.34412679709496    1.00545490389779    7.64641385871832
H         3.18554195478615    0.51811768607422    8.12080776902162
C         0.23893596414589    2.33823312275701    6.43889832648994
H        -0.58232535003296    2.86066336234539    5.97052397154961
C         1.11035866339150    6.10346627743520   13.23347252776751
H         1.55826861301300    6.81543522214773   13.91024656087886
C         3.42803232271621    4.52942805079728    5.86264887116589
Cl        4.50758508255509    5.40919781071996   10.08942980519160
Cl        4.79861453968785    2.07122755019541    9.94410603021195
C         0.95227919492943   -0.16537159136291   10.35417214758115
H         0.39222256455211   -0.11597074780359    9.42289787510770
H         0.29817381448289   -0.47725933363319   11.16413350524915
H         1.73461084786456   -0.91607072055128   10.24540141867735
C        -0.37671798428994    5.32678593565461   15.10693271667876
H        -1.45877608625061    5.22794162455733   15.15990449309876
H        -0.08090019433209    6.25982599747805   15.57856486447246
H         0.06223241220277    4.50370539463737   15.67017195063921
C         0.85650973190980    1.42276077313203    4.18775441742524
H        -0.20324348420141    1.45189967766986    3.94464397210723
H         1.28635618179968    0.50194308609582    3.80210167766497
H         1.33898757690802    2.26096612973795    3.68501703661552

