75
CSD_code = GATBOT | q = 0 | S = 0 | Stoichiometry = C34H36N2O2Pd | MND = 4
Pd        7.99206588229028   10.34930041297437   -0.00023563230731
O         6.80830835535515    8.70162238349238    0.11028024647111
N         6.88854085181736   10.92627160201205   -1.55602697621561
C         5.26365752017387   10.74362860037252   -3.35333335891410
H         5.06116950544367   11.78829914356599   -3.12420713040583
H         4.33040117624576   10.18517783612296   -3.36105115937179
H         5.69711058034191   10.69111249695203   -4.35117131228595
C         6.20943678032013   10.15895254195377   -2.33690972867348
C         6.28441861234720    8.71474246486011   -2.23919089450529
C         5.99323773518553    7.92021239416409   -3.35678416713107
H         5.78594745985874    8.39929634200521   -4.30239912525367
C         6.00431362542672    6.54817992187866   -3.29677159710810
H         5.80098842905729    5.96279734396469   -4.18060584321807
C         6.27667410989837    5.91836260082554   -2.08235963507187
H         6.27568886333800    4.83886693102378   -2.02597408147566
C         6.54891333232946    6.65958987460057   -0.96482545563533
H         6.76258256051826    6.18991085891786   -0.01629203950716
C         6.58777101220486    8.07716775224733   -0.99285353874032
C         6.82195651431665   12.33338173761529   -1.59007798194739
C         6.12289003537471   13.00539509960809   -0.57601031888416
C         6.09931816722576   14.38883332271914   -0.58658969411538
H         5.56372037206516   14.91303342414256    0.19229869725877
C         6.76627951822418   15.12008744283685   -1.56206071146110
C         7.49186720611548   14.43598892119823   -2.52511176744045
H         8.05022340134949   14.99171556773048   -3.26555764740687
C         7.53860948588083   13.05031096455076   -2.55283311460212
C         5.46175461781545   12.22002845245040    0.52075816150408
H         4.94073419753864   12.88328925795525    1.20711838124830
H         6.23093111594315   11.65345187086624    1.09093481702758
H         4.74894589525639   11.49865156055893    0.11532352435572
C         6.72065811871548   16.61838571781435   -1.53864294185650
H         7.32850608394250   17.03987818637483   -2.33516535024095
H         7.08804762203315   16.99311443026710   -0.58412791282350
H         5.69621573456340   16.96900371799629   -1.66116259558397
C         8.39632510660635   12.31986845907410   -3.54133174932691
H         8.96139981476172   11.54249024508895   -3.02214988937598
H         9.09375816684271   13.00371196673652   -4.01816321329717
H         7.79688678494223   11.84446600525593   -4.31764599908885
O         9.17589518518376   11.99675932186923   -0.11147017564602
N         9.09667349072945    9.77254205501671    1.55515387832962
C        10.71981289359707    9.95771935231479    3.35388239332662
H        10.92247511114251    8.91275394960179    3.12630237191225
H        11.65295466092130   10.51636941502139    3.36089901185462
H        10.28628690880831   10.01178894657350    4.35160845546897
C         9.77402760543225   10.54088259669486    2.33660768466547
C         9.69867434086594   11.98509052166762    2.23818974480005
C         9.98943831727932   12.78041410509570    3.35535432559359
H        10.19464445559095   12.30203714918512    4.30178300603615
C         9.98071174041791   14.15241154477341    3.29385765540662
H        10.18387496842761   14.73840116051178    4.17733115703126
C         9.71128166627278   14.78138623311379    2.07835520892704
H         9.71503946320488   15.86080103806621    2.02051607362005
C         9.43876774026577   14.03940179521152    0.96140839655958
H         9.22716997862188   14.50842260851305    0.01208188321929
C         9.39724944976339   12.62194430171555    0.99100109527591
C         9.16443297994419    8.36545820516007    1.58958618376872
C         9.86208828752519    7.69315014251826    0.57458446409068
C         9.88585989732241    6.30970708405883    0.58554926501873
H        10.42002216634451    5.78543702140036   -0.19428563445404
C         9.22127904483762    5.57844483471134    1.56259286363855
C         8.49863355929323    6.26269051799388    2.52767818324902
H         7.94322799226791    5.70708681406440    3.27042675344550
C         8.45132789243556    7.64836278899743    2.55492815166100
C        10.52443351882724    8.47695834873579   -0.52259611986614
H        11.04169963071073    7.81177138939709   -1.21000436906600
H         9.75749607339805    9.04748991780688   -1.09165958924873
H        11.24121453759300    9.19452915780967   -0.11746360346946
C         9.26684911368401    4.08016059058768    1.53935270802938
H         8.65941761139109    3.65889775344922    2.33631018973644
H         8.89893007801739    3.70528537145967    0.58511520676716
H        10.29132834669877    3.72948775072691    1.66140606500092
C         7.59727367930591    8.37799630786798    3.54723446519578
H         7.03054136512282    9.15632225752440    3.03143423555490
H         6.90151345097932    7.69365521780597    4.02574334768850
H         8.19969844611286    8.85190458020223    4.32211380228014

