67
CSD_code = GATFAJ | q = 1 | S = 0 | Stoichiometry = C27H33Cl3N3Ti(1+) | MND = 6
Ti       12.96241459526103    7.00456904571946   12.47598821416721
Cl       11.64026309778794    7.04657330471142   14.15208009157082
Cl       13.35372767654215    4.91525375543565   12.27296146016596
Cl       14.78541368753962    7.71708448331574   13.32947187626920
C        11.10271274996350    8.39794272348821   11.29996014411837
H        10.33739751227716    8.49473543468882   12.07880961644312
H        10.77646251714522    8.91393208874106   10.37519137154898
N        11.39933932260985    6.98449092599151   11.07334971321468
C        10.26599456818716    6.05550403721743   11.08930258015633
H         9.75466546024338    6.17106125980239   12.05134201970096
H        10.67118899901510    5.03840031289713   11.04619620957804
C         9.26744240571580    6.26359520239351    9.94205413018853
H         8.82740009384272    7.26055343309183   10.00510133721191
H         9.77674101176020    6.16258210432972    8.98170095759122
C         8.17884686089995    5.22423282465868   10.04263841570175
C         7.02861788360827    5.47809527394845   10.77662903299094
H         6.89669815783661    6.43894892442905   11.25353820941407
C         6.04410633603763    4.51249339279926   10.89158997766540
H         5.15087915152284    4.72190865760092   11.45965285584179
C         6.20420220747895    3.28210997704142   10.27753287092597
H         5.43607343013880    2.52978069428484   10.36540250090936
C         7.35098677489467    3.02071272690178    9.54719100634650
H         7.47934312547453    2.06425830931779    9.06430817552155
C         8.33458942233607    3.98692348402624    9.43272692738335
H         9.22562315619593    3.78034438520347    8.85672585570495
C        12.33165915313922    6.87039783689926    9.95315074933847
H        12.49398245444927    5.81305602121071    9.71370246382350
H        11.98158961488417    7.41809917992436    9.05578588496554
N        13.55538665524660    7.44305557037163   10.51087925777618
C        14.82156506444836    7.02594472057433    9.90212773419452
H        14.87269553316536    5.93293730769484    9.95871355894892
H        15.63385240521554    7.43080474175495   10.51587972110393
C        14.99710475307595    7.47843166504740    8.44582096032700
H        14.20004552725477    7.06244519921813    7.82669189084788
H        14.95864306462387    8.56779127568165    8.38596099487619
C        16.33246018423936    6.99425900072823    7.93805584225162
C        16.44488496694320    5.74926363448149    7.33478501688664
H        15.56491778679406    5.13648992682533    7.19921674368955
C        17.67479060540619    5.29281035805218    6.89483839421373
H        17.75049276113901    4.32589409838566    6.42179622977788
C        18.80447818895012    6.07599142968674    7.05944460325430
H        19.76321468360736    5.72127083297005    6.71486399193611
C        18.70022304563479    7.31700469630230    7.66421546811319
H        19.57736733351223    7.93228829351527    7.79255052132749
C        17.46986140679101    7.77249614616951    8.10370841997741
H        17.39247085563494    8.74441056680531    8.57024081070060
C        13.35642411012943    8.87731894027393   10.71049113191621
H        14.29376743686458    9.33802410176344   11.04332465838057
H        12.98367073998203    9.38180540807797    9.79705987233735
N        12.38029477712368    8.90428533157397   11.79835425360101
C        12.34121660149887   10.11428312426962   12.62429163668063
H        13.34780166115436   10.27227289537068   13.02731362456566
H        11.67014966744697    9.91945407495635   13.46811948608941
C        11.88101483568210   11.37206071963194   11.87420493236417
H        12.53963696549545   11.56103266641484   11.02426997941060
H        10.86163050100033   11.23743639662200   11.50776603264955
C        11.92786309076197   12.55041242763509   12.81484068656365
C        10.81843570872328   12.88709570592366   13.57773641622398
H         9.90352547967576   12.32108738420811   13.47453817824468
C        10.87286731888293   13.95092238025948   14.46102655437426
H        10.00286264400762   14.20834743702450   15.04517582045004
C        12.03977318287176   14.68405583759824   14.59287329962332
H        12.08193050263771   15.51464945007942   15.27995494420806
C        13.15161647392102   14.35091194475283   13.83811215537787
H        14.06282957107530   14.92073520397315   13.93531841012304
C        13.09602719243791   13.28724375885720   12.95512885647379
H        13.96484529015792   13.03443554641172   12.36382426168641

