69
CSD_code = GATFEM | q = 1 | S = 0 | Stoichiometry = C32H28AgBr4N4(1+) | MND = 4
C         4.43108192541450    9.49037075910242    8.11933793502181
C         5.61641132675768    8.75058675586525    8.20569567752950
C         5.60366676301831    7.36649305896231    8.17506371535273
C         4.40223458997400    6.69169079546834    8.05129328532355
C         3.21345069625811    7.40324084710724    7.96749721987328
C         3.23107682032276    8.78187049947963    8.00008923466046
C         4.44057134699949   10.94093361572027    8.11674221685083
C         3.51317849538639   13.07453855425302    8.30211912228877
C         3.03864460547221   13.71262973056598    9.61618982193316
C         0.79712572969950   14.15231931423564   10.09960907580635
C        -0.57005806285439   13.81087299113110   10.44596473349369
C        -1.62509028185861   14.70495077100083   10.23056767629156
C        -2.92283980120086   14.38541401716700   10.59124125393534
C        -3.19123290606061   13.16423095969557   11.18406338315495
C        -2.16194019766817   12.25992262284038   11.40482421912112
C        -0.87080563809958   12.58141563894933   11.04053355773743
C        -1.67113089522569   11.83563857940682    7.82326775468941
C        -2.85712869258003   12.56512205290088    7.67871881986173
C        -2.86070565041406   13.82457832729386    7.10367280027239
C        -1.67562683963609   14.37973695907285    6.65468082051438
C        -0.48638297017410   13.67692174621451    6.78977433119312
C        -0.48769182222149   12.42339753943132    7.36466425546695
C        -1.66489076482830   10.50254663396826    8.39508389588728
C        -0.70450243327052    8.60205237811272    9.35018602780501
C        -0.14883755780384    8.52894753260057   10.78023269261968
C         2.12089520296582    8.27989401798748   11.26529138517429
C         3.50367162346198    8.70685070552353   11.36982674275001
C         4.55003669979749    7.78207337269794   11.46437083804079
C         5.86517257657295    8.19526980197528   11.59145262579978
C         6.16061950880305    9.54635839848761   11.63517456345630
C         5.14007277168674   10.48223788371363   11.54173335296594
C         3.83143689560513   10.06575225633588   11.41153465498773
N         3.41202577224410   11.64244442293174    8.36282524381068
N         1.70571897693235   13.28218907516465    9.93582940299787
N        -0.61515441535960    9.94007863315594    8.83370094024631
N         1.19653684254921    9.03116600385104   10.82811888396124
Br        7.29813357592687    9.61863181903132    8.40888505196270
Br       -1.32306266263724   16.38538128277877    9.38872742163412
Br       -4.51497665066592   11.87019517502586    8.30472388028003
Br        4.21012763662015    5.91120541665819   11.37555290889604
Ag        1.42638841693359   10.97070971985244    9.48545855025271
H         6.53150374328811    6.81975527065229    8.24243101958062
H         4.39587991244505    5.61356323891450    8.02129208279859
H         2.27937073243149    6.87344033162099    7.86330818939262
H         2.30859561370188    9.34857676539073    7.89683634146876
H         5.39568819998838   11.41741950273283    7.87523631783067
H         4.53870720485930   13.40799186141383    8.09218997940791
H         2.85837423890706   13.41780689961969    7.49455378993566
H         3.11047467095385   14.80537269568322    9.52832559967592
H         3.69770976703667   13.37817673020428   10.42361187098099
H         1.01806253330081   15.21886289503778    9.99265491927136
H        -3.71872614409874   15.09228739620107   10.41437392282029
H        -4.20165110355280   12.92190436510282   11.47281005114028
H        -2.37446550729195   11.31243553803431   11.87532293883098
H        -0.05197869878592   11.89671629604268   11.24563607837646
H        -3.78855812628723   14.36618958279733    7.00332445052328
H        -1.68233123310431   15.35844485801302    6.20177121000904
H         0.43442760396799   14.11007474027348    6.43121344586055
H         0.43298436926513   11.84964237208701    7.44085023297438
H        -2.62798808623887    9.98333606512302    8.42110147890045
H        -1.73690502200846    8.22635847290000    9.34813927997065
H        -0.09369449791829    7.95891262434220    8.70826248890382
H        -0.21540478479422    7.49150933370833   11.13555314094028
H        -0.76338447851092    9.16449356127315   11.42551674711522
H         1.90242114573770    7.25979076843319   11.59565581750311
H         6.65371718824173    7.46205602093497   11.66204471895294
H         7.18521261260995    9.86519395413470   11.74265582065310
H         5.37415166988698   11.53457211872023   11.58565477315338
H         3.02188591910561   10.79015507486734   11.37725331912809

