48
CSD_code = GATGEQ | q = 0 | S = 0 | Stoichiometry = C20H18MoN2O7 | MND = 6
Mo        3.79061000045378    0.79651778261671    9.21828792442984
O         3.18479491403086    2.31514425910421    9.02482286264748
O         5.13621674505830    0.61393604758816   10.15171618595366
O         2.62646896608027    0.18943337774957   10.62658226569373
O         4.50051641529021    0.43882828069717    7.57849586508846
O        -1.28070325439719   -1.25736634056222    9.98933336639140
H        -0.57078998415415   -1.07193646592518    9.33929229290264
O         6.29484921434233    0.99409005849008    5.74622114736638
N         2.09945920283967   -0.17934757757344    8.25658842921699
N         1.08834853251063   -0.46739298338402    9.11433151147822
C         4.12220284441026    0.36794400441563    6.32095005107238
C         2.80719575623696   -0.00646623411532    5.97251079432629
C         2.45106789512117   -0.09092465456293    4.61330836359570
H         1.44385098988988   -0.37813698343562    4.35385397067806
C         3.36912359786238    0.19965831744489    3.63749000659878
H         3.09161688293504    0.14187127457587    2.59663578223916
C         4.67185051144484    0.57488322431220    3.97006074474813
H         5.36918859474799    0.79800381439318    3.17856963336335
C         5.06138953860704    0.65649598576336    5.29420931142444
C         1.84965899346244   -0.29259950748694    6.99298860663231
H         0.85004788656489   -0.60628008627361    6.68926650098926
C         1.43055159789937   -0.22020432050185   10.35527433836959
C         0.46972566317784   -0.41024726784111   11.43967471229703
C        -0.84464324905946   -0.91698373828540   11.21196818525287
C        -1.69576555730809   -1.06829347291527   12.28408274711757
H        -2.68713540442563   -1.45387926371981   12.10251813776969
C        -1.30656442340694   -0.73106915433340   13.59051647530099
C         0.00284044562141   -0.22016032506457   13.81699380902714
C         0.86340825838168   -0.07388324055183   12.72204450911713
H         1.86288814807003    0.31619108847160   12.86590533326277
C         0.39149229861619    0.12279361100776   15.13172907213189
H         1.38695744633281    0.51074084938116   15.29045377139876
C        -0.47479947884440   -0.03268124359666   16.17533219540183
H        -0.17562251852833    0.23073756819314   17.17889041059314
C        -1.76811638864894   -0.53787277178289   15.95275995371766
H        -2.43971071512665   -0.65339478839443   16.79090595911109
C        -2.17492404471884   -0.87874587390666   14.69386510417283
H        -3.16860787161363   -1.26592992481835   14.52211128013339
C         7.26734111995046    1.39066706664702    4.80839201090856
H         7.52253783856222    0.57349518629264    4.12542234922165
H         8.14475072883044    1.65961089558829    5.39345099663056
H         6.93601472406848    2.25924478314428    4.23125106945863
O         4.25539959841883   -1.81399106259875    9.42542117584997
H         4.80940024559910   -1.42814373203197   10.12543674886154
C         5.12988484644478   -2.38855468285088    8.46572552172772
H         4.51382008395741   -2.74875331912991    7.64070715233085
H         5.66656945027481   -3.23510178515172    8.90643100585053
H         5.85004291413941   -1.65344667510206    8.09112035814850

