75
CSD_code = GATJES | q = 0 | S = 0 | Stoichiometry = C32H35N4OPPdS | MND = 4
C         4.71092847208405    4.23089890406738   12.06266778666282
C         4.22226177812599    5.51733841254400   11.88626716030535
H         4.24808592555935    5.97954038364670   10.91045132564285
C         3.68149929212012    6.19696705021196   12.96487110383191
H         3.29353883746903    7.19609316901530   12.82851836237043
C         3.62972010053163    5.59997550171328   14.21336684856951
H         3.20369258153718    6.13616453640710   15.04872914562499
C         4.10834822508688    4.31050124296028   14.39097530748725
H         4.05398580006402    3.84212073134498   15.36279943673913
C         4.64126051928357    3.62508890088044   13.31674027819709
H         4.99929823620361    2.59747415184417   13.42149091524375
C         4.87331150959464    3.80795284060092    9.16229485625477
C         4.05927773068654    2.96063120280134    8.41399669420795
H         3.80083237859887    1.97367834884180    8.82080941440112
C         3.59809268256971    3.35959385947015    7.17221848720476
H         2.96667559664257    2.70336351340002    6.59164964257121
C         3.95176888827507    4.60290637626619    6.67235381387879
H         3.59080847763479    4.91693788677134    5.70401758598612
C         4.77897180836838    5.44019854752650    7.40466208707363
H         5.06455831429250    6.40191297983860    7.00353551213928
C         5.24652862691302    5.04490810679315    8.64500166976837
H         5.91554194099670    5.68307332756353    9.20658086424140
C         7.19712226028169    3.65852211688767   10.76596636758422
C         7.81015488127227    4.24718993713832   11.86554982756448
H         7.22496194465111    4.49758807653578   12.73996600655842
C         9.16835013641483    4.51261896530804   11.83869568540022
H         9.64178329741170    4.97411821472455   12.69331140142354
C         9.92103366007823    4.18201411878915   10.72449818309180
H        10.98229597693761    4.38396341707931   10.71060075835874
C         9.31384137393188    3.58646993662404    9.62954378689828
H         9.90334392031441    3.32288330803007    8.76297730795665
C         7.95781927818542    3.32368408378840    9.64828380877036
H         7.47653275900250    2.84574310555010    8.80598165777796
C         7.32326119991289   -0.49271093232388   10.11553909975187
C         8.65281646735277   -0.50736569069134    9.65844229510691
H         9.11414989779277    0.46460844721359    9.58965389953902
C         9.32711773734508   -1.66723739379832    9.30663050931034
C         8.62143262956999   -2.88861582008864    9.42752177686387
H         9.09571483309612   -3.82570379186132    9.18816283759416
C         7.33065085053001   -2.90367365341869    9.87081726029693
H         6.81746515664504   -3.85211427041265    9.95776797607634
C         6.62682462876726   -1.73698316238731   10.22693982871261
C         5.28717942826500   -1.87280037437445   10.66871303909969
H         4.89520001688190   -2.88926814625311   10.72907465232791
C         2.36225875133981   -0.41471909703243   11.68190075121179
C         0.70239579752563   -2.06934504134695   12.38252677868998
H         1.26816618932193   -2.75169944303153   11.74656083317253
H        -0.36538492871158   -2.18557292501046   12.17671925107320
C         0.99347766546707   -2.36646837342681   13.85237538734503
H         2.05805963848837   -2.25889525276749   14.04369549990069
H         0.69391856755441   -3.38179474440040   14.09730445071482
H         0.45143493213226   -1.67696289171617   14.49688295994713
C        11.42133367846515   -0.43559950865199    8.92557080893204
H        12.46966986189127   -0.72790888910907    9.04072913816175
H        11.14204742910090    0.13861172827049    9.81202469045899
C        11.27420329138491    0.43354804613298    7.67377764556532
H        11.58381286936707   -0.11793824183649    6.78866650108458
H        11.89316224775719    1.32322285580245    7.76112044040189
H        10.23800599418861    0.73322552118864    7.54249393584701
C        11.25851444769579   -2.78604992036419    8.25859481718813
H        10.51026749743538   -3.37815190977589    7.72635581886242
H        11.97456286049518   -2.42463629582271    7.51396924265268
C        11.99379086702455   -3.66230554211318    9.27581508032580
H        12.77196946904752   -3.09065919472982    9.77631005708495
H        12.45350313810639   -4.51128870637412    8.77607713752724
H        11.30382125942518   -4.02891385974985   10.03096638495410
N         4.45690193358698   -0.92787771902383   11.00861594427341
N         3.21841992594437   -1.33681166710379   11.39522674641466
N         1.08339477515173   -0.72947650793806   12.00241460379104
H         0.54922544231615    0.02974765609453   12.39881667405853
N        10.62599191754042   -1.63916573398453    8.86714746905451
O         6.82101166751054    0.66468614871075   10.40084222307157
P         5.44491888288498    3.17979996226863   10.77105054819122
S         2.71276096098758    1.30142915942151   11.62534770245969
Pd        4.88934291227801    1.01231992092301   10.96156421317183

