44
CSD_code = GATMAP | q = 0 | S = 0 | Stoichiometry = C12H24Cl3CuN4 | MND = 5
Cu        0.00049692420495   -0.00105433928943    0.00014123197785
Cl        2.28374586163887    0.00010723775566    0.00055679472257
N        -0.00000871199816    0.00024954008829    1.99994850911820
N        -0.00007862696086   -0.00004417751783    4.52275364604177
C         0.67563960657127   -1.19770379442530    2.49201090823155
C         0.72480120322006   -1.15075330608761    4.04865456335504
H         1.68331148072197   -1.23108559043092    2.07640449496275
H         0.12683519109427   -2.07428748484649    2.14585526982942
H         1.75659919716482   -1.08433281355700    4.39758276298119
H         0.27429338128352   -2.05194197132941    4.46803278245842
Cl       -1.14083312573237    1.97682995858850    0.00087919350693
Cl       -1.14231605517266   -1.97760117980578   -0.00036135052164
C         0.63412680526210    1.20312542771356    4.04887441776298
C         0.69960157584347    1.18428340364897    2.49220134889708
C        -1.37528187467068    0.01402780404485    2.49202515465974
C        -1.35909134568995   -0.05239721763148    4.04866867584259
H        -1.81743313389585   -0.97928283885513    4.39735215063711
H        -1.91426773333606    0.78820239775152    4.46836311612554
H        -1.90805049708262   -0.84182263231568    2.07618009976408
H        -1.85983416237697    0.92775529836148    2.14602006401233
H         0.22492863672071    2.07370163314667    2.07640879054803
H         1.73325236082234    1.14706921606804    2.14640549298316
H         0.06054061429004    2.06338120744752    4.39771024098271
H         1.63972066325801    1.26355022186465    4.46856983569153
N         0.00000932300581    0.00012683975472   -1.99971837306987
C        -1.37519152848516   -0.01321698890890   -2.49202108448705
C        -1.35914950198915    0.05164368295437   -4.04876861828729
N        -0.00008502228764   -0.00004790409928   -4.52279864301538
C         0.72427373774837    1.15110020054194   -4.04893041616753
C         0.67613181267055    1.19763107737518   -2.49218120266832
C         0.69906578766473   -1.18420805553573   -2.49204965044489
C         0.63466398841744   -1.20287105933120   -4.04880779491269
H         0.06194774571262   -2.06349736726616   -4.39825354266682
H         1.64053137364760   -1.26248758263622   -4.46796972416858
H         0.22350863654635   -2.07345631417902   -2.07689703032219
H         1.73251004603556   -1.14793691440398   -2.14550495787904
H         1.68410725966038    1.23015394240066   -2.07722619477575
H         0.12815497744999    2.07447897013167   -2.14536384226918
H         1.75590584151521    1.08550802594046   -4.39857484668108
H         0.27278022012848    2.05198230684104   -4.46794257244613
H        -1.81817240039394    0.97788397996349   -4.39828956093211
H        -1.91366983234296   -0.78975951221209   -4.46781205294831
H        -1.90740464871231    0.84329963305590   -2.07685397003681
H        -1.86041605116916   -0.92630296074799   -2.14527411640836

