45
CSD_code = GATMAQ | q = 0 | S = 0 | Stoichiometry = C22H19IN2Pt | MND = 6
C        -0.48410474336033   13.45391636582080    2.57568333252564
H        -1.36805786017779   12.94682614468599    2.19169691364150
H        -0.64564085603920   14.51185720363242    2.77835861710769
C         0.41917402774145   12.72252943575618    3.38910015126141
H         0.92619663027840   13.23862365374317    4.20540423669419
C         0.19414805079289   11.24093901337083    3.60178864980336
H        -0.69684322309724   11.08446508545790    4.22117368632653
H         1.04239064626611   10.80406785517321    4.14010226033711
C         0.04189413348527   10.55909254513528    2.26701716815127
C        -0.46051158800301    9.27413091762049    2.14096607682259
H        -0.77771799933201    8.73701353798200    3.02444535656034
C        -0.56220812412304    8.67788581354328    0.89559692969909
H        -0.96014587439340    7.67639561918496    0.81275651104226
C        -0.16550136556253    9.35846521358685   -0.24441710897793
C         0.33830484084817   10.65175253017361   -0.11491577765873
H         0.63127440849708   11.17545497240881   -1.01485481113633
C         0.44968952965324   11.25532787234205    1.12489342844688
C        -0.27531163066700    8.74087092878113   -1.60584582237722
H        -0.66487067615832    7.72770587824190   -1.54370156988703
H         0.69855471237852    8.71170417332858   -2.09340615541304
H        -0.94032037351052    9.33270459029329   -2.23319896101469
C         3.63682973620923   11.39197920319244    0.29181698469642
H         2.93191512301083   10.57090477744969    0.32604744257658
C         4.87164903526338   11.23744661469555   -0.33199225919381
H         5.12273529337600   10.29169697296143   -0.78491944308591
C         5.75154109480209   12.29542137522276   -0.35566331343186
H         6.71882450787639   12.21183172862944   -0.82821955155672
C         5.37500209795853   13.50567630402160    0.24445411397708
C         6.22382114656506   14.64880806909197    0.25773987091085
H         7.19403299211779   14.56395727725032   -0.20917758173471
C         5.82548879315402   15.80870870692473    0.82931826945801
H         6.46802559457602   16.67674394152520    0.83314390206545
C         4.54054313056134   15.92616002945109    1.42996135525865
C         4.08158828622422   17.12117498635019    2.00220312007570
H         4.71986760922344   17.99242201297872    2.00196731652162
C         2.81882371436458   17.16150309626457    2.54451137809049
H         2.42625736282589   18.06304534688463    2.98697930611592
C         2.03206900462855   16.01150260098509    2.50790886372100
H         1.03106027519986   16.02967973904385    2.91899816465189
C         3.67283533441551   14.80976678360471    1.44194145504098
C         4.09875252595317   13.57897002368421    0.84674773907747
N         3.25286853032877   12.52203589530721    0.86289452271422
N         2.43511005390384   14.87499112088887    1.97871996669487
I         0.79292462741324   14.26288571899194   -0.93568530704851
Pt        1.25114146441972   13.07785832408505    1.47126057241640

