55
CSD_code = GATPIC | q = 0 | S = 0 | Stoichiometry = C14H28Cl2N2O8Pt | MND = 6
Pt        2.06836287936571    7.38476004293207   10.03757108612433
Cl        3.45493323141553    7.47604108869579    8.21815216461779
Cl        3.64965147552760    8.18423006239242   11.47691179559438
O         2.36707334819512    5.40888389914674   10.55503626157431
O         4.56831906778582    5.53085563999220   10.25835146161726
O         4.61775009898491    1.54934462335023   12.89067425217420
O         6.27986020100719    1.01159294754832   11.48998234540244
O         1.60458069951562    9.38337164197877    9.61973152007371
O        -0.55669250323012    8.91805498336217    9.73894257936052
O        -1.48719249139178   13.38789387722286   10.31265093293586
O        -2.62537983830796   13.33335191910265    8.38412142666189
N         0.63399906894613    7.28998622770861   11.67648787098365
H        -0.19748454677349    7.70100504656553   11.23576279181554
H         0.47024240823961    6.29833521024683   11.85143907877275
N         0.61658263753710    6.69280196118029    8.55904468463213
H        -0.19583142596601    7.30562173220576    8.69310373172061
H         1.08107882017893    6.95574675021180    7.68469263200711
C         3.57188958679839    4.93838577631032   10.58631170834620
C         3.59842287746173    3.49851517836594   11.11667088774438
H         3.40797552808214    3.54716811545274   12.19182493854508
H         2.78399719498995    2.93586909403040   10.66027565786862
C         4.95174227479121    2.84611571780581   10.87773764058858
H         5.72930256691525    3.60896149260422   10.98668703511168
H         5.04164772796107    2.44401610194746    9.86869640461723
C         5.23127904284072    1.74930086089081   11.87521785953055
C         6.67353589900898   -0.03033586746545   12.37260098675748
H         7.52566820054359   -0.51773101716335   11.90651424928096
H         5.85438256328801   -0.73867648711173   12.51279428938564
H         6.95145767858542    0.38141326011143   13.34479446845523
C         0.38293135726819    9.71266912676266    9.60697312578429
C         0.13439482778084   11.20462351145339    9.43393856087610
H         0.18153519691909   11.64916620662058   10.43322808216899
H         0.94655730593105   11.62828321843104    8.84495056949945
C        -1.23532312783393   11.49506986145724    8.83273667095247
H        -1.22460354086500   11.46022844338105    7.74390210906900
H        -1.93735370679817   10.73256245034256    9.18674333003120
C        -1.76737793403339   12.83665866677919    9.28210562871379
C        -3.22311422871451   14.58222647589185    8.70937138506923
H        -3.91300240589424   14.80889142170907    7.90102410086426
H        -2.45845203899535   15.35703458110421    8.79008071877366
H        -3.75370517367571   14.51234714683814    9.66080347968886
C         0.89129643554348    7.97593901459648   12.94618513192557
H         1.11897019585065    9.02140395509893   12.72945564685172
H         1.77172850571396    7.52905349781667   13.41075699766214
C        -0.31538733601856    7.87949004745915   13.87333919236973
H        -0.10612658594213    8.39784107480894   14.80406621490508
H        -0.54428675354658    6.84085410897145   14.10430627987924
H        -1.18945420800928    8.33782462961179   13.41474630617581
C         0.21097705279392    5.29007130388693    8.49161451074643
H        -0.24615405597543    5.00989015553586    9.44325502838810
H         1.10725933084801    4.68261465033180    8.35168306842452
C        -0.77148617749444    5.05227348619288    7.34934023862761
H        -1.06268083138567    4.00639209834444    7.31942643972986
H        -0.31662853121865    5.30890106724283    6.39543269954530
H        -1.66716784455453    5.65560991961666    7.48255174086524

