48
CSD_code = GATQAV | q = 0 | S = 0 | Stoichiometry = C22H20NO4V | MND = 5
V         0.75874935216244    1.40461172697079    8.17874510889258
C         3.58602964788754    1.41653063986248    8.35580911948421
O         2.43214444509568    0.83922216732813    8.45378122199618
O         0.13741351901611   -0.06036512342909    7.89634604494132
O        -0.67500217119839    1.97801171391974    8.94608281150745
O         0.84674246217893    2.26607621434997    6.91383037635175
N         1.49512814665993    3.04972147932798    9.32432705127745
C         0.35033693377351    3.32168132622575   11.44652868363895
C         2.68282548947899    3.51284287609138    9.27523794152065
H         2.91115390676686    4.49456329927373    9.71207303295891
C         3.77754816681269    2.78038880561384    8.71790626802296
C        -0.06991630412426    4.22935079427334   12.41136288152011
H        -0.28254502652536    5.25048945624293   12.12901561385397
C        -0.22974308213799    3.83085022772036   13.72601774586887
H        -0.56072965731573    4.54469114162608   14.46555583458268
C        -0.84822976951510    3.30080212142769    9.23849447127373
H        -0.88823564890542    3.87399018715183    8.28886324103175
C        -2.07431040800069    3.58222764968243   10.07753100134194
C         4.71148495891232    0.68978604539810    7.91476838648806
H         4.56935467866681   -0.34855546922122    7.65110635659494
C         0.44783104454727    3.75285592890121   10.00156664827549
H         0.57164679494817    4.84539641019825    9.94478016531522
C        -3.72442215512271    2.84416824393930   11.66136638787395
H        -4.15877657852684    2.05439404448094   12.25663844538136
C         5.04783587338353    3.35992703866193    8.59897564095317
H         5.17199675058466    4.39799314921150    8.87450036470112
C        -2.61108512820095    4.86184818372265   10.12931141046803
H        -2.18007229300788    5.64686615170258    9.52385602842916
C         0.61381042938597    2.00827917173899   11.81901356921192
H         0.93985091917513    1.28877879937288   11.07298648589847
C        -3.69353649152138    5.13092165225215   10.94775917726001
H        -4.10569963814215    6.12886162298862   10.98362888598220
C        -4.24929691812804    4.12382177262864   11.71874627236191
H        -5.09305914700495    4.33594491180998   12.35877760058726
C        -0.53937728976242   -0.97937882031337    7.15472960204324
H        -1.62018029749027   -0.77591057146168    7.22918758876700
H        -0.34479201387686   -1.99855753036373    7.52223630370901
H        -0.23932247968658   -0.90677182690902    6.09722373628212
C         0.45480311758460    1.61345920184306   13.13587326820566
H         0.66032978508753    0.59082764726104   13.41712015657670
C        -2.64077170445653    2.57459222206137   10.84553477069058
H        -2.22239338186792    1.58001377953928   10.78873971660456
C         6.11750105037365    2.63305453401195    8.13459613920994
H         7.08919980537595    3.09158144482170    8.03616710800278
C         5.94128335386275    1.29127944940663    7.79604738223398
H         6.78285821889293    0.71753906293387    7.43589701578645
C         0.03136027626219    2.52158929587693   14.09144442974019
H        -0.09442154235905    2.20980774984704   15.11761250630533

