59
CSD_code = GATTEB | q = 0 | S = 0 | Stoichiometry = C25H22CdN6O4S | MND = 6
Cd        2.84466088827198    4.32878552639947    3.35054750919097
S         2.65965080213979    4.24056282886146    6.02278103021378
O         0.89770395994321    5.16228391172959    3.82160097019499
O        -0.11886202799577    6.80833096015679    4.90161542233746
O         2.66736325438099    2.26048462407965    3.60623628411211
O         2.83025483162746    0.61655465165506    5.08764384929933
N         1.42918278071952    7.87266731348543    2.85778766093843
H         0.55608336912519    8.02780137246713    3.35153637347811
N         3.46142324346906    6.96784377442899    2.66012145883341
N         3.03985057455757    3.30427478669942   -0.85727546669097
H         3.55255276305541    2.91053200126358   -1.62907387346354
N         2.59527923337489    4.00567046788667    1.19382652266896
N         7.06008959263595    5.08466995708496    4.36541442435132
H         7.76494079532236    5.70266051983949    4.73229559639810
N         5.10210054404691    4.40378493028980    3.58503409228644
C         0.61099529191032    5.82255574941275    4.85362514667646
C         1.24900125710978    5.37750806791570    6.20388619753495
H         0.49452771626102    4.89125635863941    6.82372696557335
H         1.61249847469094    6.25646701304103    6.73798394943528
C         1.81566179344466    2.64436064600044    5.82387253421430
H         1.80441024629362    2.13335647349712    6.78687706721903
H         0.80128642393080    2.84989979507845    5.47879855172316
C         2.51745449903288    1.74335264611485    4.75244033655368
C         2.55622884521140    7.44846198048208    3.47117222226167
H         2.70169351309621    7.55654062802439    4.53207051625168
C         3.41950152176430    6.76155113371472    0.15351329831845
H         4.42222250193829    6.37241413696499    0.05819089603328
C         2.61154159340845    6.97150967636817   -0.94399157110292
H         2.98274070653526    6.73921753737460   -1.93183217643966
C         1.31876797314784    7.48481864457615   -0.81644154139037
H         0.72146089584721    7.62319106935959   -1.70492645526023
C         0.79278300507193    7.82268130230196    0.41315169268737
H        -0.20251311525832    8.22702824806785    0.51018671796681
C         1.59850062830734    7.61769304686120    1.52285661057614
C         2.89946974759451    7.07294265844845    1.40567944330497
C         3.49608498156866    3.49698156546856    0.40215640800657
H         4.49915348582069    3.25416589244505    0.70400855227897
C         0.19440683699555    4.63000790130317    0.77563842662769
H        -0.01330772594080    4.94418867862572    1.78700715077553
C        -0.75499200717137    4.66674586508173   -0.22295812804986
H        -1.74685578263595    5.02848262316963    0.00118652384099
C        -0.47332531372575    4.24476827130805   -1.52533891366325
H        -1.25067354233296    4.29576653056179   -2.27281452139315
C         0.76909332693073    3.75891650031051   -1.87757985603686
H         0.98322438578569    3.42586548265389   -2.88162611500607
C         1.72861827677900    3.71537823772611   -0.87740456388069
C         1.45621534925477    4.15215424983182    0.43638584591000
C         5.79798416687607    5.42033548978528    4.01435725326325
H         5.41980592638696    6.42500099848644    4.05571795816887
C         5.72523844325443    1.97244039133938    3.33787750501807
H         4.75879529223568    1.63844101057626    2.99285110946172
C         6.77645049028929    1.10080189045738    3.52760663490573
H         6.63985789795747    0.05451734902063    3.30269332792971
C         8.01390893413844    1.52937272464510    4.01626469473886
H         8.80469557549950    0.80679813794159    4.14970008270012
C         8.24604081711327    2.85059877185817    4.33961793521877
H         9.19854206487757    3.18211677272631    4.72398920557782
C         7.19214175067144    3.73281927045738    4.15478328119226
C         5.93958824550684    3.31022095553752    3.65944794617276

