61
CSD_code = GATXEG | q = 0 | S = 0 | Stoichiometry = C18H32B10Zr | MND = 12
Zr        1.29119385550165   16.25840506954433    6.96898215638665
B         4.21832449255984   17.70787769514214    6.01998372722573
H         3.53784904279900   18.28795448379925    5.25601593553247
B         5.36730969372137   18.55960808429013    7.02766433674023
H         5.47443091146965   19.72427448166831    6.89795619274065
B         5.35264087553042   17.85112341446172    8.62979484889761
H         5.47688053168782   18.53276121504551    9.57727805143777
B         4.15554694471628   16.57290805419636    8.64811264050340
H         3.42632242445890   16.40279505419341    9.55844103456303
B         4.67302770359089   16.02595896608183    5.89589965442261
H         4.28403776554768   15.38136865364266    4.97968400861830
B         5.91598955414927   17.31187597738383    5.86260721030805
H         6.51073611114784   17.58590287054865    4.88511039419148
B         6.63189562783407   17.39928763171177    7.48906155157710
H         7.74658184032835   17.73706818138082    7.65677382338921
B         5.86277517445187   16.15341593380882    8.50942538168628
H         6.42315752799253   15.60681601291037    9.38781941055576
B         4.65001735863420   15.32972981827693    7.50590998899357
H         4.27606889025706   14.21781100189792    7.64355823089804
B         6.19916925381596   15.81636528231576    6.78801890214911
H         7.00439567942192   15.02362904844566    6.45918642199852
C         3.89532839654522   17.95130402845447    7.68625301238627
C         3.48046278769733   16.51773623358870    7.04300362980349
C         2.69893583801779   18.87093785431799    7.99551428765148
H         2.52016826653671   19.49530487873184    7.10439743228609
C         3.02258070251265   19.84969447906928    9.14283847393688
H         3.96765397860392   20.35289760438493    8.92813775074589
H         3.14507129071418   19.29107051164119   10.07400285742609
C         1.94547421781555   20.91663785825591    9.33512827351762
H         1.77118759924220   21.43232245350166    8.38672716462565
H         1.00547281008125   20.45128362881725    9.63868141414020
C         2.34917026161977   21.94088558590789   10.39335195872576
H         3.28339427364668   22.42095132828226   10.09391182133473
H         2.53072236288725   21.42792922460227   11.34050148212288
C         1.27542919679513   23.00406377250354   10.59170461370692
H         1.58315579244681   23.72384511233064   11.34647401421866
H         0.34077982644213   22.54907525502722   10.91333852474056
H         1.09218300277647   23.53940858238580    9.66238384025000
C         1.40731551002002   18.05859830325684    8.27989143059518
H         0.54230273605378   18.73713297827869    8.14832850606195
H         1.42560050579622   17.78739811628981    9.35257277687200
C        -0.47846118137705   17.58615554626238    5.63508783277287
H        -1.18981538756006   18.28448434884441    6.06102718240212
C        -0.74447126894377   16.24977250501396    5.29275885379599
H        -1.69452663046793   15.74897797123959    5.42257081261393
C         0.37908364896861   15.73201781958910    4.62036159373774
H         0.44237529155165   14.76612591317555    4.13241194725925
C         1.33674736366799   16.76341367581491    4.51260965675723
H         2.23330843121703   16.72496790083900    3.90652181104510
C         0.80190001032911   17.91536691512636    5.13623390270157
H         1.21949249633340   18.91337050070937    5.09972883789464
C        -0.60435648113963   14.94873462873456    8.11197187830177
H        -1.63547997797758   15.27704670118506    8.17875941415380
C        -0.07420258370209   14.06998093213778    7.14820991988623
H        -0.62842897564368   13.59603341475085    6.34896353530259
C         1.26004242687256   13.78123162608034    7.49671373745863
H         1.89504537378672   13.04445229766352    7.01671461276317
C         1.53555125695929   14.43626360813121    8.71997773757309
H         2.40869694479388   14.27551173961819    9.33528437074932
C         0.38844622995715   15.16757934650082    9.09195764909743
H         0.23861239650700   15.67059788821115   10.03960754576538

