93
CSD_code = GATYUW | q = 0 | S = 0 | Stoichiometry = C40H40CdN6O6 | MND = 6
Cd        0.00008870983449   -0.00010416229772    0.00141584996165
O         1.59951639261091   -0.00522408710030    1.29867616558173
O         1.41182093788322   -0.42376192620495   -1.51530255919525
O        -0.34820368533908   -2.25283089588385    0.18647621315737
N         3.22624232337742    1.62301485161676    1.63691397062220
N         4.19589223387471    2.24750480256724    0.90170821059008
N         1.27768403933576   -3.34015237766016   -0.96875849364365
C         3.01551504676811    2.00918526186201    2.96127435903515
C         3.96243897891387    2.82651757667793    3.57697765043200
H         4.83332979671522    3.12048107331177    3.01386019237362
C         3.77017266316250    3.24879274853203    4.87761558846835
H         4.50963337271075    3.88024798371251    5.34829686028003
C         2.63709423498164    2.86714708061807    5.57809407144841
H         2.48899953932702    3.19889027120703    6.59522784432183
C         1.69567191491486    2.05759519903152    4.96446419117542
H         0.80739286957191    1.75838213158480    5.50223687483819
C         1.87470699205457    1.62459571231271    3.66323894018022
H         1.13695204311299    0.99448088580368    3.19218036621274
C         3.20154331250597    0.22172096168166   -2.87864673841257
C         2.51858365291737    0.68980907180927   -3.99559843664643
H         1.51526278858622    1.07039739629781   -3.87152773835515
C         3.12797895419525    0.67772974044748   -5.23713469346502
H         2.60035972719538    1.05684349161710   -6.10014720441903
C         4.41096300518868    0.17353010885296   -5.37615102678357
H         4.88507305977285    0.16080168161054   -6.34661412823043
C         5.08324230022469   -0.32257446286545   -4.27118754799087
H         6.07773087724999   -0.73018721149270   -4.38191897363484
C         4.48303355387648   -0.29800215030134   -3.02484878475805
H         5.00014255497018   -0.69279346199955   -2.16162147750850
C         2.51397859577013    0.74037932441526    0.86526914266122
C         3.09470705313086    0.81500343785903   -0.44416757652171
C         2.50653966090022    0.19095552850344   -1.55905317200319
C         4.13727591038159    1.78918475722482   -0.31532430172079
C         5.04549159283753    2.33688382821772   -1.35762071158187
H         5.54013763047970    3.21875001243560   -0.95924837432458
H         4.48257177628107    2.60271986348766   -2.24996004497745
H         5.80270177892872    1.60741048780506   -1.63954160089970
C         0.04143000666111   -2.89509131708438   -0.78119569008304
H        -0.65780109741489   -3.20347745871583   -1.57898067842540
C         2.33291189537921   -3.03392658256577   -0.03046751428786
H         1.94257588298094   -2.35893992931287    0.73115103981251
H         3.16123496110619   -2.54690186615876   -0.54770875491570
H         2.69387339199264   -3.95158176330236    0.43992950419412
C         1.67826298009266   -4.00967898879950   -2.17804901979237
H         0.80441711908201   -4.24916873144595   -2.78068727625506
H         2.20997568504735   -4.93198553785073   -1.93417913486788
H         2.34116703170126   -3.36571387955411   -2.76260425187265
O        -1.59815940472027    0.00579090569652   -1.29733275764394
O        -1.41293832070731    0.42239816131201    1.51705395089440
O         0.34776895628947    2.25258723179199   -0.18261593912689
N        -3.22414746653703   -1.62264958938422   -1.63801116107969
N        -4.19463464230670   -2.24744595223854   -0.90415473462098
N        -1.27833615655560    3.34008493612840    0.97221117763500
C        -3.01172682589949   -2.00834017495866   -2.96225358590116
C        -3.95796957700696   -2.82525230955003   -3.57955361695344
H        -4.82971929061789   -3.11918988592645   -3.01775370174514
C        -3.76395568317814   -3.24713453090532   -4.88006282364259
H        -4.50291691226299   -3.87819510048051   -5.35205003543357
C        -2.62983495754326   -2.86544309684985   -5.57883072434463
H        -2.48038865038482   -3.19686135849069   -6.59587341007790
C        -1.68910941210665   -2.05627529992930   -4.96362544084148
H        -0.79997998169773   -1.75712737195500   -5.50002407739877
C        -1.86984552331175   -1.62374333966972   -3.66247998958172
H        -1.13255558685270   -0.99405130871569   -3.19013620601154
C        -3.20459891657946   -0.22259358342337    2.87801669162114
C        -2.52279225250486   -0.69022519933341    3.99587068444612
H        -1.51919960743348   -1.07049161623443    3.87301565828104
C        -3.13357199071678   -0.67793127768396    5.23671938278184
H        -2.60682465672827   -1.05662398856152    6.10045075316568
C        -4.41683409775297   -0.17399230771824    5.37414439486501
H        -4.89207009267203   -0.16114233081108    6.34405645860934
C        -5.08798967575849    0.32163032979699    4.26828397720429
H        -6.08274140612985    0.72894374542264    4.37775967029279
C        -4.48637780283231    0.29685406228431    3.02262438061142
H        -5.00260026409726    0.69131186573551    2.15871611395052
C        -2.51291838751807   -0.74019517986224   -0.86523662471217
C        -3.09512648648867   -0.81531548402107    0.44351645214058
C        -2.50801757790352   -0.19180038618035    1.55927788544791
C        -4.13749307544863   -1.78949822963666    0.31309764352348
C        -5.04696616477324   -2.33765029975947    1.35406327929674
H        -5.54152515928413   -3.21902934313350    0.95449633449947
H        -4.48503892196311   -2.60439332117310    2.24676371962867
H        -5.80418752008008   -1.60811905533333    1.63579529137154
C        -0.04205265130265    2.89498683481167    0.78487918202862
H         0.65712288111962    3.20365648817738    1.58263126471287
C        -2.33348807506024    3.03332659874297    0.03397325412094
H        -1.94305178430120    2.35793409201772   -0.72723735752776
H        -3.16184200484211    2.54658394382593    0.55143279621019
H        -2.69442301301913    3.95070443977251   -0.43697643962580
C        -1.67908721155175    4.00976102481740    2.18135415462607
H        -0.80523219868264    4.25045093005246    2.78350373408268
H        -2.21181310880108    4.93140593284525    1.93723919756778
H        -2.34112338737861    3.36544091815040    2.76650001280019

