75
CSD_code = GAVDEO | q = 1 | S = 0 | Stoichiometry = C35H36FeNP2(1+) | MND = 8
Fe        0.10009647193559    7.44176027521170    8.00299497729619
P        -0.84114615914067    9.38387378580075    7.98058848029353
P         0.09451389558217    7.57565715555861   10.17787732414339
C        -4.34893232519433    9.31660270408102    5.86384117151112
H        -5.38912768442972    9.08149676702677    6.03428483962008
C         1.33475819414908    7.12208757663329   12.63590979594489
H         0.35120870353773    6.84035191359055   12.98463545674090
C         3.86169138276634    7.82991810078585   11.73153191172261
H         4.84535066733948    8.10233846414159   11.37974204051794
C        -0.53078217070195    4.97429144365042   10.59302870016103
H         0.41194702959566    4.84590299240754   10.07723008895146
C         0.50817904635266   13.20383227696567    7.34589406530820
H         0.14944042620007   14.12455195511624    6.91147556177150
C        -2.48919071670111    4.07396065664811   11.63343511347442
H        -3.07656822708594    3.22350541816396   11.94406974671301
C         1.42972979672271   10.84682202540113    8.46470168801345
H         1.77147808792350    9.91635455273755    8.89825783959639
C         3.67492745105162    7.45719618936852   13.05240589006831
H         4.51352417436701    7.43821607451093   13.73116251400360
C        -3.92089636295084    9.67274137999832    4.59556779264724
H        -4.62509077239812    9.71363616657992    3.77915164795969
C        -0.97729381260310    6.26906397821254   10.85236488510561
C         2.23071812156711   11.97313856910999    8.48003703927358
H         3.21179253512466   11.93406607148436    8.92904274045331
C         2.41208427317261    7.10454836509408   13.50208913192292
H         2.26695253692089    6.81302931549376   14.53120233402820
C        -3.45142921199860    9.26341947614661    6.91603653435881
H        -3.79803947761407    8.98081114343027    7.89898642097902
C        -1.68706419456640    9.92446016545470    5.42450039585571
H        -0.64514021366563   10.16353086782198    5.25951498657930
C        -2.51997642208645    6.11665930894632    7.93436720122392
C         1.93073948489160    6.32457038713385    7.80855317430648
H         2.51742513065324    5.85647504465420    8.58135733739558
C        -0.30017834401830   12.08119055619919    7.33435361955162
H        -1.28679423015269   12.12823519707577    6.89644943304261
C        -2.58595581154844    9.97534445612209    4.37639620319033
H        -2.24811394145579   10.24902202153622    3.38831288641755
C        -1.70421748608785    9.58247431527680    9.62724874428242
H        -2.50999214557954    8.83534150827855    9.62278363790776
C         1.51919457765470    7.49473964022814   11.30676980546837
C         2.11318524149327    7.64200250089529    7.31222214413332
H         2.91614153019699    8.31158550074260    7.56645616316132
N        -1.53694870439338    6.71213046150371    8.03102940789519
C        -2.11390535639943    9.58587005850489    6.70855199751745
C        -2.94627106190561    5.35728597362637   11.87966757860847
H        -3.89045568955013    5.50647482202713   12.38256225059087
C         0.48081673569468    6.62940697519858    6.05290794575347
C        -2.19751102306582    6.45575906656643   11.48840428138312
H        -2.57048589323629    7.44896127198413   11.69183533926035
C         0.16326486671330   10.89166908890372    7.88963907562954
C         1.77111310242084   13.15205241014788    7.91446345239141
H         2.39647842694104   14.03135657809753    7.91766724726421
C        -1.27646283485249    3.88200804803200   10.98768468358138
H        -0.91955920127150    2.88175015771738   10.79447322489952
C         2.78696087032963    7.84810215776057   10.86082321640907
H         2.92848734902019    8.12773540508944    9.82801048248673
C        -0.49740466037181    6.35344200126271    4.96272258805685
H        -1.19541956178118    5.57459109649090    5.25906438729924
H         0.02810432543321    6.01891065246642    4.06774301514588
H        -1.05808267162556    7.25233420393882    4.71375463480816
C         1.23418651718904    7.81397244755532    6.21661161470638
H         1.20530095330899    8.67216864334164    5.56723553469049
C        -3.75086477973751    5.39461688848748    7.84758897275598
H        -4.19210424999700    5.30259671476035    8.84032060444330
H        -3.56468000213898    4.39647554784664    7.45199426216852
H        -4.44481545884688    5.91567164273662    7.18773354620334
C        -0.68058942488666    9.17833480437355   10.68895017004865
H        -1.12040277497025    9.10613876464938   11.68831079855383
H         0.12162766709220    9.92371331631742   10.73424382846196
C        -2.27781882794786   10.97486303638650    9.85560023358378
H        -2.94373253206661   11.25442466255865    9.04077851944630
H        -1.48106820903997   11.71372469424123    9.91714772104909
H        -2.84350441271164   11.00543587689129   10.78515342780905
C         0.92374912819404    5.70789073978145    7.04515569875602
H         0.59854833923599    4.68522552701260    7.13293879325323

