64
CSD_code = GAVHES | q = 0 | S = 0 | Stoichiometry = C32H29ClIrN | MND = 8
Ir        7.79077956593492    3.67790309531459    1.04313253448364
Cl        8.80664586352733    5.74146191513311    1.47589608019762
N         9.15228002832746    2.86000275046624    2.30675993519303
C        10.32751213025477    2.38915017639599    1.89014683509426
H        10.51485416093077    2.40659526228544    0.82505645919107
C        11.28960935324576    1.90636004554040    2.75284024983155
H        12.22348642692578    1.53577458184570    2.36231990713389
C        11.03117075350218    1.91920986253259    4.11848010181438
H        11.76604632642983    1.55671749010371    4.82084848158692
C         9.81951104670359    2.41092866912952    4.55787736177717
H         9.59150352870620    2.44567322590515    5.61053958903117
C         8.88313659516254    2.87751151826918    3.63607209748310
C         7.57830311426392    3.42648531636699    3.95033870063935
C         7.03426023056736    3.51806010044375    5.23180949748420
H         7.58521577283759    3.15342903481963    6.08591257750592
C         5.78874572327019    4.08185625877026    5.40939437174482
H         5.36283831183894    4.15318881314024    6.39921852822142
C         5.08975106011308    4.57272339446166    4.31560381151233
H         4.12098927622580    5.02946049842503    4.45973780702225
C         5.62746356499036    4.48960659450061    3.04242431546556
H         5.07496475087502    4.90487840629707    2.21277882521416
C         6.86672419898937    3.90048288675192    2.82772593073131
C        14.25539018724635    2.40468372516103   -3.75667393993492
H        13.90246695501125    3.42165382341198   -3.84946367406661
C        15.49912999381844    2.05990523147471   -4.25143542505588
H        16.11917817838678    2.81249013603680   -4.71672226247351
C        15.95021126476298    0.75413264580894   -4.15498326218490
H        16.92292792448974    0.48594971486022   -4.54015245800155
C        15.14783436015688   -0.20616201588224   -3.56200143334735
H        15.49622291937380   -1.22574854896269   -3.47979991308100
C        13.90146942699395    0.13554769024366   -3.07170300744024
H        13.28655513555037   -0.61534681907351   -2.59617266966920
C        13.43819856080759    1.44630232596187   -3.16148890765618
C        12.11409430993267    1.81012736628142   -2.63899956572457
C        11.01610617345844    0.97431020270438   -2.83427279269805
H        11.13603027948913    0.06261291815075   -3.40202367801623
C         9.77149859542044    1.31056781571915   -2.34249281677924
H         8.92864421232633    0.66337823779739   -2.53506708563465
C         9.58352812427105    2.49351764868511   -1.62794886200777
C        10.68315560226181    3.33461540038080   -1.43592072503460
H        10.56319123151134    4.24666610344272   -0.86819777301431
C        11.92421103186081    2.99888717984058   -1.93687972153858
H        12.76500049739289    3.65341830841967   -1.75802181819220
C         8.27288539470758    2.85706121388915   -1.09314122452199
C         7.36820784647237    1.99650941103667   -0.36924507751136
C         6.15133953886371    2.71184548948925   -0.14547969645474
C         6.34923367329718    4.04933491874577   -0.60975424944456
C         7.64923940908959    4.11308626825666   -1.23155946894372
C         8.15662955151629    5.28964545617497   -1.99597721830424
H         8.50026639066434    6.07018472991023   -1.31554514515943
H         7.36018315932396    5.70790082427254   -2.61097957891049
H         8.98717116465004    5.00092472840593   -2.63730529382522
C         5.29025767977184    5.09547284493848   -0.78581286721970
H         4.42901181131022    4.89015252991121   -0.15500970927562
H         4.95264648943605    5.11274713031710   -1.82437119605287
H         5.67767513544415    6.08175270812013   -0.53778336823624
C         4.86315651815234    2.11868917377306    0.33159827450984
H         4.28839755780982    2.83519700929597    0.91336453500275
H         5.04171694828067    1.24394808749871    0.95204785255517
H         4.26101658670842    1.81261161456420   -0.52617327385664
C         7.57302405684447    0.53804994652163   -0.10078059289830
H         8.63320905410224    0.29293119564126   -0.07033670699684
H         7.10348927920882   -0.05964326682388   -0.88473337256446
H         7.12490600620433    0.25062899869955    0.84938517130345

