81
CSD_code = GAVJUK | q = 0 | S = 0 | Stoichiometry = C24H50FeO2P4 | MND = 6
Fe        9.65092768911732   12.04818344767952    3.38677400044609
H        10.36890683105693   10.92192695705085    3.89527959379979
P         9.84052703414050   10.80506520489916    1.58603929553788
P         9.10946299664646   12.15257917007092    5.51011114250297
P        11.52757183927975   13.11197781720220    3.40112257143506
P         8.42513687460023   13.68888614747249    2.64867636381168
O         8.34889707882081   10.26268207279366    1.23770716870795
O         7.49088257984686   11.97786356768171    5.55481408597195
C         7.93542202284986   11.09233780346243    3.41267592931447
C         7.48620804229700   10.36446218921457    2.31812409821909
C         6.22994586857675    9.78486750619408    2.27286233941888
H         5.92568689545568    9.22297856435802    1.40254547647282
C         5.37860036106391    9.94557777142558    3.35540060470290
H         4.39445660008547    9.50295189991867    3.33321254100494
C         5.78163416371279   10.67066735393293    4.46624628158895
H         5.12748846655967   10.80374660502481    5.31492340167427
C         7.04867361797737   11.22786235901602    4.47261540630746
C        10.35625856879794   11.18481935029997   -0.17970058612804
H        11.40705705959630   11.48952324143681   -0.13012626431220
C        10.21096151483944   10.02743201551202   -1.16355168021364
H         9.24777951586700    9.53886380271377   -1.03416308815591
H        11.00350354772239    9.29191033310388   -1.05115009406299
H        10.26196300015433   10.41534854776674   -2.18096310060277
C         9.52068766435176   12.36943447584598   -0.64411794305506
H         8.52212633647982   12.03331121722483   -0.91684897950640
H         9.96694912550964   12.85774001739731   -1.51003871980342
H         9.43321110058502   13.08969022800561    0.16651262037436
C        10.69327693624544    9.15288569791144    1.80327240275862
H        10.48776750339185    8.59214692557683    0.88455980175434
C        12.18970589299203    9.33811330631757    1.98911622265545
H        12.67742193406290    8.38290762835959    2.18030218266070
H        12.35783715037189    9.99154710068746    2.84267610545290
H        12.64578609684618    9.78697586156033    1.10808316809417
C        10.08825948794375    8.37334428116337    2.96266372004210
H        10.54937852048744    7.38862981571239    3.03415389292966
H         9.01601802884828    8.24402574314283    2.82604958142119
H        10.25053345362516    8.90130872293076    3.89878298802331
C         9.22840408345265   13.57014919185141    6.74059888399627
H         9.27353250404595   14.45031810063902    6.08648979723352
C        10.53117305418504   13.52531783507069    7.53078356597178
H        10.71715368235586   14.48923736562837    8.00571545689114
H        11.36866171623717   13.29820036750415    6.87414845579122
H        10.49036457025622   12.77146801094796    8.31225108477721
C         8.02847859694352   13.74321227737782    7.66508217299620
H         8.12436407960697   14.68610621342090    8.20415516830187
H         7.96854291041757   12.94081108552006    8.39317852086693
H         7.10012059538832   13.76479221931418    7.10132113897269
C         9.52126085958392   10.56792687938266    6.43282586254713
H         9.09317639338031    9.85228053313302    5.71071283103736
C        11.00104997732308   10.24931581896354    6.56976626189950
H        11.12871337842298    9.20507614069127    6.85442575208945
H        11.47985009037423   10.86594044055671    7.32590431235103
H        11.49724602650124   10.40751357892958    5.61568902624999
C         8.78227020509185   10.39003427818794    7.75451133217776
H         9.24009558490577   10.97229857672797    8.55084091009053
H         8.81496779174906    9.34119269313115    8.04953071121335
H         7.73886260038442   10.68072350124334    7.65472843079180
C        12.46189577721084   13.30152231753319    1.82587862168529
H        13.31502386333520   13.96743069682625    1.95975069850136
H        11.82026909658940   13.68072152451778    1.03405567631516
H        12.81506259146559   12.31187382736610    1.53889208110989
C        12.94281546151631   12.49560392212244    4.40049739997351
H        13.79260683539270   13.17260481789553    4.30283643269473
H        13.23115518872023   11.50464873149799    4.05575658209701
H        12.65074478946687   12.42547052641359    5.44520491938241
C        11.56600169523277   14.84850117490321    4.01654027246568
H        12.53399826026604   15.30687373498646    3.81337848104674
H        11.39484260303596   14.83209753210541    5.09146042121291
H        10.77832812268582   15.43371389470230    3.55121961179948
C         6.89635107590359   13.31101565783479    1.69419183180623
H         6.47016535876402   14.23677668186239    1.30503857435476
H         6.17796838640361   12.83053781277331    2.35696586281914
H         7.11372433960326   12.63362508317738    0.87263194381648
C         9.07893374842542   15.07681196260251    1.58593710484888
H        10.14342045737408   14.95533041915122    1.40063284827266
H         8.92068541455290   16.03232259747400    2.08529395779328
H         8.55775190593312   15.09736066744351    0.62992735168976
C         7.59339997776316   14.75994538939560    3.89458467266664
H         6.89988356499737   15.43598781763008    3.39181705971109
H         8.33467994010013   15.34468134238802    4.43698633745560
H         7.04599144386177   14.13905200910272    4.59911904899614

