65
CSD_code = GAVJOF | q = 0 | S = 0 | Stoichiometry = C16H43MnP4Si | MND = 6
Mn       -1.05089214270210    7.31131265777294    7.93192246897504
P        -2.46543212936162    7.09131467991966    6.27133245571066
P         0.50370518709499    7.12371148920477    6.39393996642032
Si       -1.05156949280501    9.53370192902414    7.93200059199840
C        -1.56508156036252    6.62578920300938    4.72234752005205
H        -1.39998754754648    5.54335160333383    4.77815361502036
H        -2.17655824036179    6.84938085055733    3.84131006546085
C         1.30985518930676    5.49621695569178    6.10891702807207
H         0.53887238906707    4.72636817976687    6.06871131936374
H         1.87669957466385    5.51353875706329    5.17604606490920
H         1.97756054324501    5.27462477821579    6.93935119304956
C        -0.23442816210520    7.35272561933430    4.71370214376444
H        -0.38770433086989    8.42598900363479    4.56164806321293
H         0.44337285512660    6.97961745832590    3.93823298307678
C        -0.72456723783814   10.82235820087513    6.49383739538196
H         0.21461768503014   11.33846409651446    6.70175336826485
H        -0.57701717509530   10.29974517263155    5.54693157350035
C        -3.74909699003134    5.78001568083519    6.22042493443823
H        -3.31510585927478    4.84940580456990    6.58680885466610
H        -4.58419344741339    6.07140542436761    6.85888107684482
H        -4.10185254144886    5.65018399684673    5.19516181358698
C        -3.49423887680706    8.47352201165581    5.62639729573820
H        -2.83444448754962    9.24536865045012    5.23344986459927
H        -4.16682888337311    8.12325480978652    4.84226758745860
H        -4.07228839710351    8.89445913089726    6.45023757217365
C         1.99243139820208    8.18586852530059    6.23133716196458
H         1.69123406087038    9.23235015142482    6.23425953648732
H         2.64434982067949    8.00224751185722    7.08735940668476
H         2.52635617282949    7.95110901954177    5.30937637129733
C        -1.82425296646103   11.85919170183521    6.30456728387686
H        -1.60818428108953   12.49593007584759    5.44597939133126
H        -2.78724837404198   11.38171492179560    6.13741983601426
H        -1.91558049244657   12.49668394360222    7.17869030917225
H        -1.05181392067248    5.79263086326855    7.93292157101186
C        -1.37798773881328   10.82241091358588    9.37005876081625
H        -2.31716186252865   11.33852079750418    9.16219630904618
H        -1.52544540887985   10.29958854386984   10.31684879113044
C        -0.27818294216320   11.85913266400093    9.55917667595036
H        -0.49408672939057   12.49580306227646   10.41784765714736
H         0.68475761941280   11.38150278078345    9.72619051455232
H        -0.18688146165409   12.49668581025680    8.68508615582857
P         0.36317185255067    7.09127346816426    9.59329055716438
P        -2.60569523036127    7.12365051707059    9.47002830763579
C        -0.53735174822148    6.62540141781260   11.14207028947839
H        -0.70247383041371    5.54296080345713   11.08617060136977
H         0.07403821619142    6.84892868371150   12.02317350698705
C        -3.41200663207760    5.49622719571313    9.75526172710719
H        -2.64116692934553    4.72623279956622    9.79548998101179
H        -3.97887065942845    5.51359073313630   10.68812737021081
H        -4.07978627743895    5.27465214843985    8.92488670019317
C        -1.86796103484424    7.35241551737633   11.15048956053990
H        -1.71465167007665    8.42566617314546   11.30259701351852
H        -2.54586417955400    6.97932911227056   11.92588757983156
C         1.64662876708491    5.77972026410020    9.64394189976619
H         1.21266843922293    4.84908602258463    9.27754743587217
H         2.48173722279165    6.07109568828168    9.00549260322248
H         1.99944548591364    5.64984447624830   10.66917198827550
C         1.39200262600544    8.47350931359296   10.23807259735912
H         0.73211873914208    9.24527542804704   10.63108380354677
H         2.06462185481210    8.12308593731435   11.02212894639785
H         1.96996434282119    8.89440328309712    9.41411675776709
C        -4.09453710573790    8.18565024802318    9.63286296336794
H        -3.79346839615772    9.23216896848815    9.63003464875834
H        -4.74651059942699    8.00205071904773    8.77687776087503
H        -4.62845206879284    7.95078365027477   10.55481285169147

