70
CSD_code = GAVKAR | q = 0 | S = 0 | Stoichiometry = C22H41FeO3P3 | MND = 6
Fe       -0.19209366408427    4.87233757313142    4.47827979042785
H         0.45125112324681    3.86605394284848    3.65446713755033
P         1.65860730903442    6.01829313647550    4.17074153604418
P        -2.03703969145491    3.88020153763262    3.87140547236708
P         0.38438049934743    3.72887164933429    6.22391514774888
O         1.30268093927532    7.13822371447707    3.04801754421070
O        -2.88604248929170    4.96996195664081    3.01894155223708
O        -1.70900009817220    7.02784971605040    5.64994043456086
C        -0.77738838373065    6.02525490142756    2.99585141025894
C         0.03345876475161    7.03975584087929    2.50932079993081
C        -0.39662022558806    7.93666266476214    1.54584235159414
H         0.27031872631035    8.70749118375997    1.19132002407248
C        -1.69154392761007    7.83087804378132    1.06415983053008
H        -2.04260680141109    8.52611329871116    0.31743571773856
C        -2.54315226184276    6.84507925204929    1.53888787764539
H        -3.55658149194024    6.75956802353701    1.17790176728915
C        -2.07188342764489    5.96494391527954    2.49631033016745
C         2.44992436253175    7.23340552037796    5.35672011676062
H         3.01778833554324    7.90384400815690    4.69992428661650
C         3.38294989760460    6.61816284565764    6.38921280054520
H         3.86706040292090    7.40706116502969    6.96491820958445
H         4.15985090070708    6.01599884571575    5.92247119031001
H         2.83025761636488    5.98937274468626    7.08337603487297
C         1.35394226202753    8.05078570094720    6.02700770260709
H         1.78661964682485    8.85822590391049    6.61702550316330
H         0.75392126496892    7.42713760107821    6.68668615283856
H         0.69359255347739    8.48891577898937    5.28019766363024
C         3.17154979587893    5.27301785573482    3.33977757982361
H         3.61311152692462    4.55233046078308    4.03598941108794
C         2.71255781430177    4.52808388237220    2.09159332105907
H         3.55962731951967    4.06136162424680    1.59114372489280
H         2.23414738223657    5.21687477642355    1.39657298928096
H         1.99560945303134    3.75511619180139    2.35231147615475
C         4.20670531530495    6.32693243921271    2.95233679881342
H         4.95384770832965    5.87603470318631    2.29987709709448
H         4.72455177809581    6.73699274134760    3.81523772492227
H         3.72870711283687    7.13856358226869    2.40736564039129
C        -3.43065257833433    3.30317468763397    4.97192683600679
H        -3.13043810090118    2.32816369412831    5.37486088985345
C        -3.56060395184691    4.30706142380347    6.11158107035736
H        -4.28894371977486    3.97069148470201    6.84897539860774
H        -3.88427198819806    5.27050313673029    5.72193369736371
H        -2.59900516047781    4.44968565329851    6.60515629705611
C        -4.76077342289274    3.15726116370212    4.23965275170759
H        -5.54871718271804    2.94135529509650    4.96056532516275
H        -4.73912865421339    2.34700956379991    3.51548432155649
H        -5.01123123056691    4.08047838349637    3.72384883295814
C        -1.94382454065208    2.50300048877521    2.60981554908878
H        -2.97736901713571    2.22543795655773    2.36865130626485
C        -1.19483999037214    1.30113908925641    3.16148129476208
H        -1.08095124800370    0.53728941029668    2.39341395385200
H        -1.72416509982005    0.86078324061290    4.00494856320215
H        -0.20456430233084    1.61605589194495    3.48634877562587
C        -1.27181912639069    3.03370076162675    1.34887480695033
H        -1.13050524333737    2.22970323300421    0.62768049953506
H        -0.29986736070195    3.45654182356109    1.59470172587270
H        -1.87274154837218    3.81178657716623    0.88206829222285
C         0.30421248117233    4.55326248873117    7.86669747167702
H         0.67679706526306    3.89327511611998    8.65010014524416
H        -0.73223070754287    4.81641688181634    8.07503300593629
H         0.88767529965522    5.47082222763465    7.85285262871410
C         2.10231730448171    3.08407943092959    6.24568828483468
H         2.31616945892724    2.56079108085067    7.17834641066816
H         2.80108811297148    3.90579136385647    6.11093294246333
H         2.20830768255472    2.39977063930877    5.40481705234325
C        -0.45791672554540    2.16385129661430    6.69573146600766
H         0.04526308106385    1.72209276469077    7.55713903725288
H        -0.41971352716436    1.47131746671501    5.85832789239336
H        -1.49690098124549    2.36166654670906    6.94982586731667
C        -1.06502242618151    6.15448101412723    5.26005345831594

