43
CSD_code = GAVLAR | q = 1 | S = 0 | Stoichiometry = C20H16F2N4V(1+) | MND = 6
V         5.14985290884317    4.14454547261393    3.31626014416082
F         5.32960087738946    3.32295350594857    1.84655676107713
F         6.43629895531661    4.71307047605074    4.26246996186841
N         3.21732126092144    4.08843094988875    2.69360819930099
N         5.10883518679494    5.82301926766992    2.26895422439017
N         4.14649253777440    4.71040904435992    4.98694053504968
N         5.26696403054234    2.45559731053657    4.33903627950366
C         3.03185030447670    4.88146789499172    1.62403883318027
C         1.87079622085530    4.77840452789355    0.85037436813323
C         0.89985725364375    3.86200108671527    1.20200234749774
C         1.09500588930229    3.07561284131676    2.33205179999728
C         2.27290852088143    3.22540455362734    3.04088510552033
C         4.09043658471761    5.86321729482615    1.38716309047527
C         4.05135259687313    6.82677340805810    0.37555306946917
C         5.07018148483878    7.75597737676955    0.28370101044476
C         6.10163993469418    7.71331622822070    1.21553869639261
C         6.07696041676432    6.72979266324163    2.18732706442106
C         4.43519441214635    3.90166244900986    6.02141183619555
C         4.10087473795534    4.26708017943166    7.32983464653005
C         3.45119973700045    5.46422012086003    7.55535101769761
C         3.12868707078353    6.26943392838066    6.46847989635512
C         3.50255140487091    5.84849364792317    5.20548279086477
C         5.05553916565664    2.62743004509795    5.65884242633542
C         5.35728204648846    1.61558116063383    6.57446974227967
C         5.87494564100018    0.41874032564700    6.11693503526196
C         6.06762694594748    0.25137167330312    4.74986482295033
C         5.74967162507214    1.29680667066665    3.90254007306614
H         1.73593220008896    5.39715994191257   -0.02117580564851
H         0.00443167395386    3.75949980478762    0.60908655771890
H         0.35885245067404    2.35190146364449    2.64149050336775
H         2.47771462434149    2.61532394644657    3.91453473927872
H         3.24139659441918    6.84598412991735   -0.33483216792363
H         5.06291306590336    8.50004339724852   -0.49717582092473
H         6.91284466962891    8.42213947297333    1.17965466997520
H         6.86621284818264    6.65030794350620    2.92666210027093
H         4.35748661435355    3.62947541901415    8.15948703155742
H         3.19720639575310    5.76800903226277    8.55888178535125
H         2.61784432101230    7.20881025955404    6.60277545810547
H         3.29476949087262    6.45797521577896    4.33213160841370
H         5.19743485402395    1.76341144952204    7.62978276222354
H         6.12364189389699   -0.36991579934481    6.80946081884861
H         6.46666610332251   -0.66798698621850    4.35322994190745
H         5.89482444802284    1.21554720531320    2.83103203905995

