62
CSD_code = GAVPAV | q = 0 | S = 0 | Stoichiometry = C31H20N4O5SZn | MND = 6
Zn       16.01672679512036   12.58932014471963   11.36640139473024
S        17.75851604800873   18.05588210983806   12.47361931309092
N        15.42123920712595   14.38607855214552   11.86405742167584
N        15.51821957372119   13.14433369569603    9.47914330107089
N        14.57433294389269   11.56970399360098   12.66080966024031
N        16.45916713309144   10.50658747336963   11.08183232570043
O        17.87885910615569   12.94261633759528   11.41762062017943
O        18.52253304602302   12.65229657638380    9.31015202927513
O        17.85606154173894   17.34028409356423   13.71008292625182
O        16.23080813395760   18.33896383575468   12.09490318271511
O        18.38123329280792   19.34007576479472   12.38618653604158
C        15.42473992838278   15.04655501571291   13.06659778103003
H        15.51522513694652   14.40197280707762   13.93093673590990
C        15.30076019804020   16.37004106657340   13.22398994315520
H        15.31475634031017   16.81177386813076   14.20556590457311
C        15.20988880398568   17.30506672169696   12.06750957278866
H        14.29404886185719   17.91902583291215   12.12246854083632
C        15.26395281167187   16.54921013671433   10.76505152155724
C        15.24718416936470   17.26425840789297    9.56689537594234
H        15.17938597506641   18.34087825624468    9.62566140089917
C        15.33713177237880   16.64378309594123    8.34611214708731
H        15.33490015192665   17.21483163921742    7.43079720545429
C        15.43604712074736   15.24418792831537    8.28111055412094
C        15.54875219740474   14.52859797802937    7.07270922002985
H        15.57050192494694   15.07332514771949    6.13966023537661
C        15.63388331269647   13.16159316563013    7.09889465273171
H        15.72713324014807   12.58665789336858    6.19108344643472
C        15.61164651254612   12.50551387301392    8.33233931394903
H        15.67234083400285   11.42760424656992    8.38348547254190
C        15.37225663322960   15.15325320688263   10.75421983475869
C        15.43746466145806   14.48929534117011    9.48562550408024
C        13.63221274379893   12.11180967200591   13.39803122230786
H        13.48326646167483   13.17438850536988   13.27612472646328
C        12.85551568573676   11.37200954139135   14.29626046898283
H        12.09625170738249   11.86801914547971   14.87948469763069
C        13.08098960254775   10.02231901382633   14.42447900205454
H        12.50784743133475    9.42129296629995   15.11544758997106
C        14.07610399218687    9.41752450779310   13.63795428247380
C        14.38697584336666    8.02844751897154   13.69661364404706
H        13.82691587173735    7.40990567325169   14.38222958294422
C        15.36228301139821    7.49713424395119   12.91966108120203
H        15.59958370968158    6.44488057086124   12.97342106192286
C        16.10176313222635    8.30702153247099   12.01038355133654
C        17.12467908815356    7.81028707586628   11.18264331619215
H        17.38024759293040    6.76113904855291   11.22344592680081
C        17.78420733103648    8.67523437975258   10.34422268324301
H        18.58032529491856    8.33164167343144    9.70309176157055
C        17.42023221326154   10.02842413332840   10.32438192211267
H        17.93479901256911   10.75214710587000    9.69799569532739
C        14.79674779447825   10.25158328433158   12.75493380035475
C        15.81366457462848    9.68523814217988   11.92017302145082
C        18.33461711093291   13.35789087328137   10.29881249334400
C        18.57187119755357   14.84687827678496   10.20291513081009
C        18.31136435384162   15.66292016175193   11.29823044788374
H        18.08835826654424   15.24145629586820   12.26557444075733
C        18.30673333945129   17.02706764218791   11.12854106976645
C        18.60433869887619   17.61458072649173    9.91544669690655
H        18.58499604232455   18.69036497336720    9.84326564748004
C        18.91728138875669   16.80358772091489    8.83576090613221
H        19.16398969885649   17.24440510178991    7.88131627059917
C        18.87925675910236   15.42631055681509    8.97676352298654
H        19.07148363993186   14.77272172947739    8.13827126069632

