74
CSD_code = GAVQAY | q = 0 | S = 0 | Stoichiometry = C32H28ClF9N3Rh | MND = 8
Rh        4.23360657821239   27.31816748604489   -1.74184404165429
Cl        6.39022499990609   27.07918688111286   -2.55332247934514
N         4.58767764882952   25.53704648608396   -0.75274027032319
N         5.10967410329243   27.43383649606561    0.14055666184312
N         6.19366144511091   25.49655962201542    1.02697973447556
H         6.59866009226421   26.07775925261248    1.74817745418522
F         2.56100262038356   19.87343059216290   -2.45100111137695
F         4.62608199561322   19.66536526433266   -3.00457532076547
F         4.00415948550989   19.24248526110235   -0.98763683121176
F         8.15094401001311   31.25940308149649    4.12825076671039
F         6.33619681712414   32.35973010110492    3.79117896123818
F         7.98650359857741   32.57094309229642    2.42976267946848
F        10.23416022634674   20.71815654904689    0.26441508004525
F         9.08564854907597   20.46191182996185   -1.53559101270639
F         8.36864497070738   19.65540650188230    0.32625229689861
C         5.31454972547271   26.12171510400008    0.18721337343219
C         4.43738718170933   24.19791960434021   -1.02039312931247
C         4.40290696936164   23.78199630798569   -2.35581970576014
H         4.55072502762939   24.52576754672912   -3.12709892774337
C         4.21793090345663   22.45502694939790   -2.67006044559099
H         4.20765235897798   22.13014148651180   -3.69928245123338
C         4.05454335939903   21.52112175842812   -1.65116644796493
C         4.06081651125465   21.92447214810383   -0.32184537823539
H         3.92080665317755   21.19583902231815    0.46159340356733
C         4.24621881624674   23.25328210925774   -0.00586213978812
H         4.23661593396204   23.56963749420584    1.02547750849689
C         3.82358707028177   20.08563224612643   -2.01285700831061
C         5.69356653603244   28.42101317308088    0.89491320188042
C         6.11462515615101   29.59091553048812    0.25078374056583
H         6.02633934640188   29.63839137600795   -0.82614092077687
C         6.64923776426840   30.63712157811839    0.96716656855068
H         6.98442244620574   31.53070722106848    0.46355880349120
C         6.76748952713279   30.53564441711504    2.34973865959932
C         6.33536366543669   29.38987002529414    3.00686231829464
H         6.41541872557075   29.32753509560144    4.08169831695260
C         5.80155357488686   28.33962705619581    2.28961936233087
H         5.42297036463658   27.47400378928660    2.81374907123249
C         7.31349332459103   31.67113222482907    3.15973975502307
C         6.91829752561301   24.34115658532484    0.68814488643265
C         7.27753028910514   24.07149535830787   -0.62995603441248
H         7.05926486216222   24.78835463513672   -1.40716321881722
C         7.93934234076581   22.89922579013905   -0.93727222090421
H         8.21310021507780   22.68598931682868   -1.95836103827316
C         8.25847378307261   22.00243663154069    0.07273324973084
C         7.94532631799226   22.28944742325927    1.39628411213971
H         8.21630065343293   21.59393173380927    2.17557835359368
C         7.27756211534502   23.45702118893016    1.70239266752727
H         7.02429458824831   23.68483051112841    2.72663289256453
C         8.97785617994717   20.71964869378861   -0.22741502707113
C         2.10536020707037   27.78515727859779   -1.65903950058193
C         2.35507990574519   27.01110171887129   -2.84514362080759
C         3.28869792614704   27.72574662094057   -3.64880256071982
C         3.59542982610213   28.97109755315699   -2.97641050289918
C         2.83699206312734   29.01469809732845   -1.76930063553868
C         1.06603291807573   27.47595796449621   -0.63082805714233
H         1.30533524929966   27.94381930675546    0.32098454865719
H         0.97415519791226   26.40290017301160   -0.48020997429330
H         0.09894915279167   27.85718016830677   -0.96454351356825
C         1.63439149242588   25.74959474733506   -3.19677406622369
H         1.63943741249047   25.04480448484988   -2.36702486849494
H         2.07947312504131   25.26369510134525   -4.06030505044281
H         0.59599071898893   25.98856470553104   -3.43187243008165
C         3.75433494180649   27.39031213605729   -5.02954967386931
H         4.83926314160981   27.45789285828829   -5.09531452476565
H         3.32709050325000   28.10142875310903   -5.73792712142049
H         3.45234484529065   26.38724718223941   -5.31814412744969
C         4.39094860612288   30.07734311510523   -3.59444036314908
H         5.33813474531528   29.70199657179472   -3.97841134398749
H         4.59460496856372   30.86934906056516   -2.87841356178748
H         3.83211497195691   30.50194532524441   -4.42995017277868
C         2.71838633621151   30.16443841615578   -0.82149778392862
H         2.73189035553878   29.82575330694447    0.21258244366623
H         1.77077200766352   30.67495774964855   -0.99938728049123
H         3.52557242771702   30.87847797430369   -0.95782497650280

