75
CSD_code = GAVQEB | q = 0 | S = 0 | Stoichiometry = C31H40N2ORu | MND = 7
Ru        0.44403583211557    1.43457968452054    6.75926885141337
O        -1.16651908218758    0.65784143797712    5.79208640318719
H        -1.35216270900065   -0.18379131850748    6.22561281376541
C         0.21389134184786    3.05589250681312    5.58350466452273
N        -0.76303944861036    3.99219243894945    5.68179116493079
C        -0.72391083646220    4.85837446516010    4.61688008665034
H        -1.41638915601508    5.66932168863704    4.51536081114425
C         0.30152392993431    4.46510271163110    3.83082331875915
H         0.66966290591032    4.86004472949740    2.90594265258377
N         0.86405247421468    3.36393860677601    4.43204544434540
C        -1.65330865570138    4.08937246438916    6.78348983168236
C        -1.24407725135990    4.79725475863645    7.91280117274948
C        -2.11602912945565    4.89942451677186    8.98641891193947
H        -1.80477819318962    5.44075693950881    9.86904608701232
C        -3.37589233234269    4.32051804870961    8.94650024637465
C        -3.76488485084580    3.63845527214835    7.80093348900336
H        -4.74772346206731    3.19015320078649    7.76251161175771
C        -2.92378373289441    3.51488728766341    6.70574249247676
C         0.11455734564690    5.42887478699083    7.94213857868075
H         0.86889724508797    4.67814860794392    7.70739918671705
H         0.32244836563560    5.85476290805328    8.92000246630523
H         0.18332430922376    6.22099263467830    7.19576381545393
C        -4.31630306403428    4.43431807361244   10.10888433397210
H        -3.82748485501050    4.89570299520941   10.96327150777630
H        -4.68040199406367    3.45108018170629   10.40255178048278
H        -5.18028968492377    5.04022615295890    9.83662529489114
C        -3.32914447149831    2.76377712549091    5.48076521445801
H        -2.65327670191099    1.90797320915602    5.36469620163886
H        -3.23786731699582    3.38449332154976    4.59048635759266
H        -4.35150069588975    2.40553843299419    5.56157220712846
C         2.01631077242406    2.68375100792711    3.96244537527159
C         3.26866276824225    3.26682750920462    4.15736000675841
C         4.39181981206248    2.60032009350457    3.69132754395247
H         5.36752050976503    3.04121743992447    3.84226172653686
C         4.28824015575346    1.37984011418309    3.03860683989741
C         3.02881558810583    0.83068787260751    2.84518659615264
H         2.93832913415173   -0.11436793311694    2.32835970361023
C         1.88008385065351    1.46616671591982    3.29314046753196
C         3.38920572589917    4.59311205261378    4.84699509954661
H         2.73192378633533    4.63447393130911    5.71307084457305
H         3.10395801891896    5.39964103584177    4.17087281794971
H         4.41284153121365    4.76761858171707    5.16898539888178
C         5.51630266829307    0.65714959400010    2.57409163787601
H         5.30113409883480    0.04863937979420    1.69895060030444
H         5.87728938958570   -0.00341016248053    3.36332723156898
H         6.31210307668399    1.35749890264773    2.33123318825614
C         0.52433895262490    0.88503104528939    3.05795222982481
H         0.59416443929839   -0.06690511047472    2.53888321196957
H        -0.08572419695431    1.56600140143500    2.46466962584547
H         0.00899377361116    0.73593496599584    4.01576036197153
C         2.26663282684332    1.74440203689503    8.00652692148798
C         2.36762053103812    0.52638862721132    7.25979527610037
C         1.30741398148399   -0.35391717728712    7.69158699243832
C         0.53470275730466    0.33203455764831    8.65048094885463
C         1.11043509124680    1.64451529918781    8.84206157731987
C         3.34953829318543    2.78042707460598    8.10888029808246
H         4.06234129226496    2.48789788267111    8.88414851557057
H         2.94997563053028    3.75784382866825    8.37289263389207
H         3.89003649304627    2.87090575824673    7.16979084196502
C         3.52445738317466    0.10566339206771    6.40557564074708
H         4.25732165367216   -0.43353304140181    7.01120130748477
H         4.01568367187638    0.96638451292231    5.95716309811216
H         3.19729498116165   -0.55369256136748    5.60336600391677
C         1.19243399940038   -1.79061261197472    7.27465220753649
H         2.02014279627253   -2.36790371219299    7.69278956917760
H         1.23213756496356   -1.88641467436800    6.18892927333190
H         0.26035305812337   -2.23217679048489    7.62278950343444
C        -0.60323343200571   -0.19451083513864    9.47217770179698
H        -0.27953224457796   -0.35100545748863   10.50381721180172
H        -0.97219986609152   -1.14226821820276    9.08450121637217
H        -1.42924415120099    0.51795332788932    9.48426087038797
C         0.71732461273992    2.56305241807253    9.96041514982105
H         0.86857623539330    2.06090170161943   10.91856249812537
H        -0.33437527625291    2.84196999321826    9.89054201841607
H         1.31622213572541    3.46985836068811    9.95349521614180

