85
CSD_code = GAVROM | q = 0 | S = 0 | Stoichiometry = C36H47NiP | MND = 7
Ni        0.88043415143335    9.37015423796901   11.64624403742452
P         0.86944292438498    7.37115619803711   12.42774960280254
C         1.19857999336391   10.18138349325140   13.43208139588429
H         1.42274557199434   11.25011858325901   13.36350455990558
H         2.01551385368423    9.69906391228069   13.98295360344821
H         0.30203185379822   10.06866003525332   14.05264238412681
C        -0.53578056394643    9.90560318628575   10.06945034208437
C         0.04789245839275   11.03318584441515   10.66859535774821
C         1.51257617955652   10.96034930179877   10.43498295840294
C         1.77151208945924    9.79682476926271    9.68284756638800
C         0.53539606794749    9.09480060876748    9.58627100016168
H         0.38981367814682    8.20554034772668    8.98847403820382
C        -1.97837035831231    9.60662731094493    9.75283752866227
H        -2.61875212203349   10.34710328936105   10.23700810439066
C        -2.40218650180268    8.22313179498529   10.24731666903425
H        -1.84543127723034    7.43979574452426    9.73712971036038
H        -3.46364074499917    8.05953668854491   10.06664656616725
H        -2.21393286410294    8.13182024140526   11.31625319472326
C        -2.19401771548377    9.71114720567210    8.23829903115096
H        -1.87528776271803   10.68473031730501    7.87114991879088
H        -3.24648532843557    9.57492599105890    7.99450333354816
H        -1.62049012741176    8.94792353593933    7.71679982249214
C        -0.65840524880609   12.26556177540663   11.18382478152786
H         0.08767365602203   12.90105097408848   11.67174477933064
C        -1.73476682582523   11.98021582991456   12.23651042974005
H        -2.64387337259091   11.58723070750529   11.78997333349274
H        -1.99264320248339   12.89930045818911   12.76046370253642
H        -1.36549399801113   11.25778444763086   12.96023563541225
C        -1.24728610794824   13.06754634603788   10.01771486458407
H        -0.47787004757456   13.29772446448005    9.28397717707147
H        -1.66664001917474   14.00372007730138   10.38233910408165
H        -2.03579025529347   12.50856038577349    9.52089357093536
C         2.45841701888880   12.10935707437344   10.70291698712846
H         1.95872192178434   12.79794679549197   11.39249589575880
C         3.76913477034207   11.69847969847759   11.38146236960258
H         3.56246943374211   11.07407330672817   12.24750076502609
H         4.30613030933265   12.58630484260923   11.71231611466325
H         4.41892981074844   11.14765990658714   10.70743991906290
C         2.74800986039975   12.89211363703555    9.41708727622133
H         3.36213486931174   12.30961484393544    8.73619841764261
H         3.28007343151004   13.81207499842855    9.65374626909476
H         1.82182148786534   13.15197723587630    8.90919229469131
C         2.97896759582808    9.43621233199562    8.85474425863095
H         3.83338304365993   10.03952720892792    9.16955530698886
C         3.37661614412014    7.96437332222911    8.97196198877673
H         3.51996334058305    7.68418441326454   10.01382192237769
H         4.30679664122612    7.78236863700161    8.43527739768348
H         2.60992330577132    7.32711950451032    8.53619564746720
C         2.67460744405814    9.76262462386788    7.38597711738500
H         1.86005845469122    9.13974619902925    7.02176991168033
H         3.55139092218072    9.58011322168317    6.76647655217422
H         2.37818553970951   10.80265273208456    7.27209104927149
C         0.15255995542132    7.17027505409274   14.09689040917571
C        -1.08164900026691    7.77862667998945   14.31672622543796
H        -1.53007671214550    8.35255020397162   13.51447979906301
C        -1.71340921688693    7.67047760033373   15.54013785855545
H        -2.67198893501108    8.14294215983078   15.69851748007649
C        -1.10871373305152    6.96199526783836   16.56668853978401
H        -1.59630969989963    6.87859810559079   17.52673808084511
C         0.12686396243803    6.37292479110743   16.36237423887619
H         0.60582952585052    5.83182998053667   17.16550595746842
C         0.75822691861527    6.47447957895401   15.13364109862825
H         1.72673608306528    6.01877067827404   14.99046461349066
C         0.04407777341547    6.00317886454337   11.53582103469370
C         0.63898848674069    5.55691620967441   10.35844279369671
H         1.57869774532404    5.99115738397188   10.04749598692671
C         0.04369680096833    4.56624030834937    9.60203821384504
H         0.51472253326692    4.22622583706665    8.69070789246758
C        -1.15886680949275    4.01136367710408   10.01113648081115
H        -1.62873557583153    3.24021490204202    9.41861459408801
C        -1.75481482188755    4.44877367708284   11.18144972539331
H        -2.69055775512465    4.01666991704933   11.50518977239779
C        -1.16003216528355    5.44130460391627   11.94155509257495
H        -1.63443547390480    5.77501678176649   12.85303734993126
C         2.54023723089042    6.66255241262796   12.61408768765330
C         3.62315166188877    7.53090911246851   12.53987780738378
H         3.42860052773731    8.58381461320995   12.35717421113583
C         4.91445274048041    7.05446733685686   12.67877028329146
H         5.75149920988804    7.73450031585766   12.61885327116261
C         5.13042322726074    5.70212325335470   12.88626323984019
H         6.13688717906391    5.32491248260310   12.99277847177491
C         4.05538794888095    4.82908687505754   12.94894085991572
H         4.22600723774282    3.77340883531488   13.10335343410233
C         2.76318336579764    5.30315514083400   12.81240244569132
H         1.92605640429897    4.61943472020231   12.85189948388052

