83
CSD_code = GAVRAZ | q = 0 | S = 0 | Stoichiometry = C35H25ClF18IrN3 | MND = 8
Ir        2.09937661141542    2.23031514486065    2.77843617045502
Cl        4.26625561078376    2.87309714677128    2.13246653147956
N         2.99068856274435    1.95743260947211    4.70110507386905
N         2.26576226895262    3.89115888710562    4.06113107223299
N         3.82192157944844    3.84064422321928    5.90460648416352
H         4.22414103903271    3.21205544154403    6.58643570786529
F         4.58435162614745   -2.42146051548451    3.12817940283357
F         6.54476579187149   -2.11076632117241    3.95568069951076
F         5.20130219514784   -3.51650680561426    4.87118460734848
F         5.18853034721786   -1.27462620145645    9.28127002165404
F         4.64043499573378    0.80540159074220    9.36680954778848
F         3.11431411863885   -0.70664243105735    9.32162031336555
F         2.40218438049594    8.39108205554731    6.73740275301315
F         0.69141869950269    9.41056105142363    5.91833083980955
F         0.42590015595502    7.61943085774329    7.07800745465066
F         2.24402131717633    7.79747379278123    0.49856836080415
F         0.40551339047787    8.72488422491626    1.11742939496419
F         0.40550939604974    6.69340858822883    0.41265974985331
F         5.62762720711167    9.06800290421016    8.16603166063951
F         4.71941897163968    7.44541546114685    9.24920984978733
F         6.79358467890562    7.34487554416135    8.70435002836618
F         4.12759915538860    8.47956694721837    3.02338309841278
F         6.26176392609716    8.62103585763436    3.25596058489200
F         5.39921954924359    6.93632167854533    2.23582377922106
C         3.03139351822052    3.26310266890855    4.94796903000049
C         3.62364642212668    0.93191056683772    5.34593037518620
C         4.14363374605421   -0.10857526375069    4.56412352285915
H         4.09164796825911   -0.01267709689281    3.49018021563708
C         4.71340315161344   -1.21566729715796    5.15840648265255
C         4.80647011951628   -1.32688655584787    6.54212860504935
H         5.25956912743708   -2.19041803009512    7.00141672111396
C         4.28565545924559   -0.29910332853577    7.31211511486963
C         3.68715507901453    0.81302493083854    6.73906372564350
H         3.23480244202441    1.55628783002671    7.37940054894468
C         5.26043842888560   -2.31354267061309    4.28543855085819
C         4.31745875526160   -0.37864940466197    8.81460995508196
C         1.91803186043434    5.21125762131511    3.97695149250769
C         1.70004209777283    6.02882733060592    5.09080477128842
H         1.80508736569839    5.63509518975783    6.08969370177965
C         1.33702905362599    7.35409382887853    4.91268652120897
C         1.14096564429971    7.89790901944566    3.65234887253948
H         0.85889086968314    8.93050996435513    3.52919577769117
C         1.31678957151405    7.06682770979846    2.55298987418666
C         1.70918558210930    5.75127091386331    2.70261016302540
H         1.88440488876455    5.12097227257471    1.84374458956206
C         1.20233536312055    8.20141607096751    6.14793025905408
C         1.09893478635801    7.58411620082757    1.15633110433398
C         4.39823064342796    5.10951567032239    5.83106748001828
C         4.72405461429353    5.76655287384690    7.01517924675460
H         4.57249369650102    5.27998655193404    7.96719491140256
C         5.22218435126529    7.05849856120909    6.97066892003370
C         5.39795599734331    7.71861023776902    5.76401293046615
H         5.75640503128981    8.73523423920713    5.73814500667359
C         5.11037024069043    7.03505086673366    4.59063962303545
C         4.63567751990864    5.73412675093337    4.60737005802632
H         4.47760070225352    5.20089387150857    3.68132602312526
C         5.58141070703387    7.73892952544339    8.26606105685689
C         5.24186437563129    7.75657715850371    3.27486322644497
C         0.06909241717907    2.39774529790476    1.82780861941185
C         0.07874961327656    1.28764597280628    2.72622532500048
C         1.05241288344083    0.33701898076401    2.25416201559467
C         1.67800889003200    0.88255223266121    1.09543729188749
C         1.08550904085986    2.18038400708360    0.84153677275034
C        -0.90976857968645    3.52241765640405    1.87212333687447
H        -1.01316881177922    3.91574114273658    2.88155232061494
H        -1.88669606544834    3.15724205755817    1.55291621583153
H        -0.61770765152608    4.33450513685322    1.21333560574768
C        -0.90541442965679    1.04559687738496    3.82076924671671
H        -1.23850195311543    1.98279367738269    4.25937936030610
H        -0.47436249367806    0.42658590603023    4.60364497897903
H        -1.77962617588880    0.52772408071639    3.42296945097321
C         1.23060330548890   -1.03725854354462    2.80878391412360
H         2.14546613363785   -1.49922207870490    2.44953198469439
H         0.38939191064885   -1.65882423063986    2.49902736927879
H         1.25389110584730   -1.02296201630188    3.89666065469852
C         2.64191380801324    0.20607605218365    0.17775260735046
H         3.46213113164703    0.87530351674759   -0.07402681505671
H         2.13337113937146   -0.06805897014463   -0.74706480414151
H         3.05529541083624   -0.69286364277917    0.62650345566631
C         1.34341409823136    2.98891774362239   -0.38779058647911
H         2.41294374109728    3.11153293080354   -0.54643354637649
H         0.88584776092655    3.97246909718126   -0.32590753490529
H         0.93257901434847    2.47229660401744   -1.25597888437720

