133
CSD_code = GAVSUT | q = 0 | S = 0 | Stoichiometry = C62H38B2Cl2F25N3Zr | MND = 10
Zr        0.12279948689292   -1.62362270295127   23.72127501676244
Cl        2.18839313511411   -1.60122297262291   22.50956841251859
Cl       -0.39487039929691   -0.01644810447346   25.42230958514647
B         2.52868912972968    2.64229712171537   21.27583462140019
B         1.09437413489888   -5.81007613497657   29.12760930989364
N        -0.43741987746848   -2.37786142490173   21.40670036284094
C        -0.23965580989375   -1.35483151773168   20.65448487229607
C        -0.28551995932668   -0.02505445639292   21.26561853370382
C        -1.29045212857626    0.28128632940007   22.24490412018010
N        -1.78145165147503   -0.70635605070228   22.95569600766838
C        -0.04725550597266   -1.36418888165536   19.16858897196544
H        -0.28510489640519   -2.34061833122880   18.75419992330150
H         0.99049269903811   -1.11988237421919   18.94011200558190
H        -0.67316193025216   -0.60534286343348   18.70161057332632
C         0.59382553278145    0.94776334937473   20.92048658085439
N         1.36471979676816    1.81545432601683   20.81394552562724
C        -1.71045733348766    1.71725572143485   22.40315490572468
H        -2.17116924882359    2.09945625063553   21.49340517337883
H        -0.82757037837929    2.32416617680019   22.60382761063347
H        -2.40377308929490    1.82161142548689   23.23478706606547
C        -0.59803831262508   -3.68404641867546   20.85866843866321
C        -1.87746993508331   -4.26145788481724   20.96286626176792
C        -2.08129282974750   -5.55276035817167   20.50449045893395
H        -3.06252689130387   -5.99317410524404   20.56829643365561
C        -1.04188441607392   -6.28495869444496   19.96314804575276
H        -1.20897632698242   -7.29423229083302   19.61946325179492
C         0.20633594353959   -5.71046042215934   19.85220548083737
H         1.01117923112481   -6.28005958165091   19.41562779614999
C         0.45511036066456   -4.40901765020520   20.27590531718456
C        -3.03521437120547   -3.44557354852344   21.49030497313834
H        -2.63616598399445   -2.73159138644156   22.21860897318996
C        -3.65680339503290   -2.65579538362525   20.33262239412156
H        -2.93489627487460   -1.96228013181094   19.90644683487154
H        -4.51605348545865   -2.09083788819210   20.68608261664469
H        -3.98580835408559   -3.33411018153727   19.54799728103886
C        -4.11344547147056   -4.27590739947607   22.18770544291844
H        -4.72177677458104   -4.81850207545947   21.46854530203059
H        -4.77079494083547   -3.61483693781621   22.74924775809557
H        -3.67495102409509   -4.99268481994198   22.87825976219032
C         1.85520029538592   -3.86676173340380   20.09440000172156
H         1.88318704890312   -2.81702133345639   20.38371103511799
C         2.84797702363629   -4.61314482005659   20.99088324498614
H         2.61418154241216   -4.45025463790231   22.03946797199341
H         3.85143485685202   -4.23762788114214   20.80817010518755
H         2.83465222999020   -5.68197701911196   20.79066259994972
C         2.30623640324484   -3.96888923017898   18.63274421918895
H         2.51380017591403   -4.99952051810147   18.35693028830659
H         3.21788802501482   -3.39349795992933   18.49320067272988
H         1.55008391994928   -3.58280010089782   17.95328501214268
C        -3.07959437344793   -0.62447509795464   23.49262436258851
C        -4.12393484801967   -0.12484940404898   22.70842691324710
H        -3.91064577993084    0.25784355333049   21.72131770271562
C        -5.42439284141539   -0.15360078733221   23.17329595117511
H        -6.21875244284737    0.23327823510115   22.55269751699636
C        -5.71006090848653   -0.67915485856606   24.42232598138569
H        -6.72666270954425   -0.70099424057222   24.78263330353529
C        -4.68062671175646   -1.18095981801203   25.20153785480730
H        -4.89349874807696   -1.59312046140399   26.17599876894133
C        -3.37670130687390   -1.16360310469367   24.74201315016939
H        -2.57465172444570   -1.53657868172002   25.35808752309495
C         0.78023187374157   -2.98549908200473   25.81257695048280
C         1.37270214491434   -3.59817571879052   24.68555085983080
H         2.43407601469909   -3.77135822401649   24.55437695130447
C         0.34204501227587   -4.07199727493234   23.84064449658664
H         0.47228076245400   -4.71072342150019   22.97867813905396
C        -0.90006987534310   -3.73942287044372   24.43967362100146
H        -1.87150063660406   -4.09443011118891   24.12357503802190
C        -0.62137826400779   -3.08334368813616   25.66152486880267
H        -1.33479022247659   -2.84043016480313   26.43543554363548
C         1.48406911771991   -2.50881507655176   27.05193366956808
H         2.56357909723225   -2.50730961310582   26.88718049100705
H         1.16722621388618   -1.49014303342342   27.29547488752475
C         1.15482873226817   -3.40946241951163   28.25008000603751
H         1.66380714220826   -3.03318248891692   29.13817197212110
H         0.08148585433136   -3.37717206947492   28.43438981361427
C         1.58466158852770   -4.86963275737616   27.97686116066560
H         2.67277745523515   -4.87072749116051   27.89716382210267
H         1.18933312767420   -5.15375325951993   27.00203505197122
C         3.53196361909095    2.79141967772164   19.99927482731487
C         3.81784461414034    1.68684039432605   19.20417449099293
F         3.25794922724204    0.49563419090759   19.48686850010003
C         4.66378504430380    1.74271038798171   18.10322119138904
F         4.89033300007691    0.64520714333371   17.37142551919074
C         5.26968879063467    2.94619478209338   17.76462075933645
F         6.08283763227169    3.02027563171111   16.70952497865740
C         5.01408067893912    4.07069544604532   18.54018961130534
F         5.58602058891595    5.23684579673243   18.23052974633385
C         4.15873680723889    3.97687344123580   19.63369904644447
F         3.95583533996343    5.09343621098174   20.34763297359956
C         3.26515972524479    1.86502599063126   22.52546734374669
C         2.58118878256037    1.07284891861118   23.43035469931010
F         1.21917965265706    0.91416078104073   23.37677758926520
C         3.18075879727882    0.30755744819586   24.42064069098183
F         2.38361275937830   -0.56710203783561   25.09694842578323
C         4.54870779387482    0.36661652336080   24.60762443223322
F         5.14946020394316   -0.36701648313903   25.54261215342897
C         5.28017352842343    1.20307413970352   23.76400358212596
F         6.60166664643607    1.29362860573625   23.91328114396704
C         4.64446837162391    1.90655050904985   22.74461351034733
F         5.42316261931600    2.64562842021172   21.94868003084274
C         1.88131571797973    4.07321245214658   21.71869281918642
C         2.15714189885977    4.72827996517337   22.91192343552285
F         2.96887308005544    4.16569689171368   23.82097651413429
C         1.61712594328956    5.97121031626544   23.23073892961105
F         1.91515036406009    6.55483345927275   24.39418642126486
C         0.75777522132743    6.60076957155917   22.33888432149890
F         0.22596805186330    7.78793369639759   22.63346044967835
C         0.45110591965037    5.97028047717172   21.13840592923698
F        -0.38612928499922    6.54911360681793   20.27116824687376
C         1.01405512947014    4.73301105486147   20.85231921705322
F         0.69180428876024    4.16115092121077   19.67934602096664
C         1.64883362180432   -5.67580282019587   30.59367061154731
C         0.78391966155041   -5.69611940722624   31.68948400579277
F        -0.53610378962148   -5.79613792416945   31.47656785231336
C         1.22640247244740   -5.59217584459737   33.00196569204693
F         0.35623095475794   -5.60311742026397   34.01248843065576
C         2.59083739182380   -5.48524633108315   33.25791141254767
F         3.03381556452585   -5.39699796606996   34.50863435036825
C         3.48569001426894   -5.47013574093609   32.19214023107791
F         4.79472107405525   -5.36916013678242   32.42374677688858
C         3.00681040190233   -5.55200287756619   30.88888152507989
F         3.89858984274125   -5.53923967325182   29.89459647630419
C        -0.02901301940605   -6.88535640989081   28.89422933738663
C        -1.15642960552978   -6.64032293724187   28.10933056353372
F        -1.32281989615563   -5.44156919112736   27.54487612732083
C        -2.15269920106274   -7.58988131224821   27.91288023100425
F        -3.21666229745706   -7.30048754740483   27.15931276365086
C        -2.03371425662010   -8.84715543681542   28.49626323361679
F        -2.97458543830432   -9.76827121879664   28.30567320297918
C        -0.91928791278536   -9.13138990719512   29.28099137064291
F        -0.79076688051260  -10.33216841158691   29.84602150903611
C         0.04878434128707   -8.15340081938746   29.47373445284836
F         1.10910368553855   -8.46036806166141   30.23247876554208

