57
CSD_code = GAVSII | q = 0 | S = 0 | Stoichiometry = C27H23Cl2N2OPZn | MND = 4
Zn        4.03814504907945    5.04622321950053    2.95797042105784
Cl        2.05017395604734    4.08763248624648    2.84953379468298
Cl        5.99386174260735    4.14694111539760    3.14402024009774
P         3.14765055369414    7.87229726565412    2.69956797191589
O         3.76335787917175    6.79820766336790    1.88281684498435
N         3.66949238910181    6.26412954145484    4.68829911099045
N         1.62031989602940    8.97352193888623    7.48537664832213
H         1.23312000730902    9.80328603080794    7.05094022888892
C         3.08776322063052    7.38659048382797    4.46776960529521
C         2.42077200605435    8.28367245678495    5.34994132436036
H         1.99767496229751    9.16230626301281    4.87535289425142
C         2.26564283027790    8.10856421097284    6.68791610641865
H         2.67800143774487    7.23696007061857    7.16935167959464
C         1.40734420462000    8.86408113057581    8.85748474900339
C         1.80665985623920    7.75678127926998    9.60370292134174
H         2.30233848805271    6.91954543634454    9.13808765621240
C         1.56042006648008    7.71951416858267   10.96361606535143
H         1.87218330271565    6.85609132636952   11.53097248839765
C         0.92017861644955    8.77091353707293   11.59766759764205
H         0.73234732662575    8.73209408547282   12.65910140219541
C         0.51987721035178    9.87203679245603   10.85869950910287
H         0.01879655819877   10.69713191712028   11.34146782939718
C         0.75978685088268    9.91974301345781    9.49980197669669
H         0.44632023300811   10.77971264133156    8.92435626289874
C         3.78683131761347    5.64302531208470    5.93837389651377
C         4.92009789806076    5.86369584800753    6.71688912974051
H         5.68489937627342    6.53660479250068    6.35934810027189
C         5.05923686040652    5.20714860338613    7.92580386662665
H         5.94044196597700    5.37965294966200    8.52530622883491
C         4.08118089253564    4.32908015740252    8.36279336133519
H         4.19585848962977    3.81747376295186    9.30640798559764
C         2.96500052002263    4.09451333534069    7.57580420325039
H         2.20788635299167    3.39745756591317    7.90217357823509
C         2.81125252649387    4.74388985255865    6.36502156649786
H         1.95457306795676    4.55622629359774    5.73571866206065
C         4.12778850282753    9.39631420847100    2.59215056192693
C         4.81386237645497    9.95496500953702    3.66034058112709
H         4.74150390759389    9.51166145939015    4.64356087796207
C         5.59401134805489   11.08074349778870    3.45565656128353
H         6.13203875592971   11.51810335140477    4.28362443529986
C         5.69135383157677   11.64111121898000    2.19279386486243
H         6.30308471091633   12.51746645403532    2.03941453899986
C         5.01370443502434   11.07552729577608    1.12333156986100
H         5.09822175160098   11.50853777192269    0.13796393221374
C         4.23434079350249    9.95156032044213    1.32170706820019
H         3.70455956895146    9.48568030982308    0.50148652972579
C         1.44496984333111    8.24594403950388    2.20486098975742
C         0.63051580161302    7.17678124990202    1.85037186716917
H         1.02345169440532    6.16919238875611    1.88071687621271
C        -0.67931482254195    7.41529558662802    1.47260300779393
H        -1.31403735577847    6.58743902786339    1.19609329987141
C        -1.17144102697551    8.71044485247509    1.44995583171941
H        -2.19249421575230    8.89508477000402    1.15044171307203
C        -0.35727115906658    9.77378546381112    1.80883543273859
H        -0.74306974403026   10.78263763679629    1.78769940962156
C         0.95227036862388    9.54546690622561    2.19057313151267
H         1.59576272211044   10.37161063247152    2.46286201100429

