52
CSD_code = GAVVAA | q = 0 | S = 0 | Stoichiometry = C25H21CrNO4 | MND = 9
Cr        1.08758240082528    3.18106068267400    1.16492821521825
C         5.18397990973221    0.38361985194840    3.12305286153425
C         6.29359356571596    1.21322222773815    2.46741676368225
C         5.65029812432061   -0.18586226901429    4.47991722242497
C         6.93427168318353   -0.95604198918206    4.39261909058740
C         7.07874797284974   -2.07527123660552    3.69930348258905
C         5.98420413717325   -2.69132719620454    2.88102055696104
C         5.51810440530579   -1.75449538921843    1.75904491368941
C         3.94362885476633    1.23566862519920    3.27824543412995
C         2.93998090544305    0.74032551738152    2.52593371446362
C         3.42454930510241   -0.50208900208259    1.86176019033121
C         2.67283167515617    3.22718180437589    0.27620383935390
C         1.65028173464702    4.81811499629474    1.72222210619543
C         0.51169336391001    4.19209782108656   -0.24068764908496
C         3.96536275023957    2.46733307639711    4.07877930121172
C         3.78229354864760    2.42752041368732    5.45881070524723
C         3.80828752558035    3.59621221181082    6.19914594712115
C         4.01845049783809    4.81279497643673    5.57196700909426
C         4.20057316179868    4.85870324232357    4.19992755436995
C         4.17466699764123    3.69390139670828    3.45421488441199
C         1.61371169996932    1.29596025899003    2.29271221525946
C         1.00789355982302    2.18668944825782    3.19783556802910
C        -0.27296254855409    2.70651683479543    2.94331514363209
C        -0.95627864882270    2.35927895448015    1.77908058133169
C        -0.37276600134374    1.44331304678275    0.87903035158079
C         0.88848856761980    0.91924521605734    1.12858634447057
N         4.71374081023995   -0.66427608320927    2.24199052205570
O         2.81338187135836   -1.25689167588644    1.12779882596370
O         3.69785925714354    3.30366775137878   -0.25530781546779
O         2.03531312830608    5.87377582851449    1.99787780209618
O         0.21629366797875    4.88006031480197   -1.12041514434141
H         7.77194202678332   -0.55201486988566    4.94278310697616
H         8.03534201883953   -2.57778950161365    3.68853000662292
H         5.95960132627909    1.58027280177553    1.49948332568736
H         6.53893790483913    2.06259801937294    3.09947922201373
H         7.18560885510177    0.60666112034921    2.33270058348783
H         5.77034054107182    0.64776863471617    5.17167186510136
H         4.85694363097202   -0.83925966443765    4.85705513974682
H         6.33291489264489   -3.62169940672796    2.43353792886537
H         5.12406295273006   -2.92168544195411    3.51635811713148
H         6.38671125409512   -1.36700542537912    1.21545077901112
H         4.87970750035743   -2.30167763316819    1.05947107345905
H         3.59819726007603    1.48158741318451    5.94878964843573
H         3.66153978227473    3.55445696360306    7.26862868603037
H         4.03629040454572    5.72283630094717    6.15230402019379
H         4.35546839077771    5.80327581468414    3.70290389818759
H         4.31293232530065    3.73135656442153    2.38490837639260
H         1.49031223519210    2.41020430726483    4.14052379626453
H        -0.74857151968980    3.33488131473847    3.68791104030604
H        -1.96596941644532    2.71428194861567    1.61060990075772
H        -0.93873724319113    1.10297190907003    0.02008090779309
H         1.30106699385398    0.15636917369398    0.48118803939276

