65
CSD_code = GAVXAF | q = 0 | S = 0 | Stoichiometry = C21H40ORuSi2 | MND = 8
Ru       -0.14667151061574    3.36465129189129    4.10159007507810
Si        0.84546655722253    4.83860516768380    2.55987887826221
Si       -0.21460419755399    5.26857217493690    5.52424473627738
O        -2.97706618607857    3.37964992165577    3.15836371711259
C        -1.87987137770044    3.53407770134910    3.48852656575985
C         1.57641243690701    2.22992639534006    4.99516663356500
C         0.42328688559567    2.02275559514260    5.82960358080274
C        -0.58191116934582    1.38292880180053    5.05006167090302
C        -0.04781362439476    1.15333403733768    3.73480957996079
C         1.28542976793133    1.65489353384468    3.71069639233669
C         2.96272204044553    2.50861563147535    5.50824382948258
H         3.43275144943950    1.57156735811858    5.81910390924303
H         2.94177055885759    3.17508786544434    6.36740810700105
H         3.59061123579852    2.95851459495447    4.74158693869990
C         0.38142006958068    2.19260752027455    7.31839308532162
H        -0.61666791867105    2.45751843199685    7.66090648395237
H         1.07070353475364    2.96545210306449    7.64859708878214
H         0.66619481027255    1.25280405336291    7.79808926582043
C        -1.85173949525546    0.78505043527839    5.58071704285938
H        -1.67110614068304   -0.24825881419468    5.88729984481547
H        -2.63548722643853    0.78016687869630    4.82493273654135
H        -2.21551714643036    1.33629572746475    6.44575228124638
C        -0.67493961982861    0.27864313282855    2.68917793632084
H        -0.30476469386089    0.52453864474408    1.69572647973571
H        -1.75858205602499    0.38187790289328    2.68461334805001
H        -0.43542955659199   -0.76806526315313    2.89283749436716
C         2.29051029929733    1.39479853932283    2.62792601291712
H         2.75024770036403    0.41665491477704    2.78871998502516
H         3.07813228418748    2.14451426716021    2.62730141049614
H         1.82441185074837    1.39185498171572    1.64473124472358
C         2.69250751049796    5.41241473837889    2.63208421411099
H         3.16433334439024    5.47045158367302    1.65336851229742
H         3.30475610833999    4.77185689371081    3.26207113220356
H         2.69955634149641    6.40552379733642    3.07465497166680
C         0.07971124468863    5.87095881842386    1.07697417111744
C         0.36820420914614    5.21879997544445   -0.27817860441833
H        -0.07756559156471    5.80757129419130   -1.07832370355390
H        -0.05073573145518    4.21576001670826   -0.31925005593510
H         1.43824946396322    5.15060358913863   -0.46260352386713
C         0.63509722799189    7.29537308667044    1.10187826662143
H         1.69462266439582    7.32473095528684    0.86155452259072
H         0.48625239604132    7.71861582156102    2.09066481201322
H         0.10565753191886    7.91567486121006    0.37974427443071
C        -1.43167965560435    5.95440243730929    1.29427704956839
H        -1.63154599018597    6.38197106633531    2.27354312868244
H        -1.89633294228636    4.97191010911035    1.24336183443175
H        -1.89002314876053    6.59005070387088    0.53765684731404
C         1.31504475624686    5.81273127737595    6.57517030647070
H         1.37760378054773    6.89614923220262    6.57655276326110
H         2.24091426085453    5.43786067454374    6.14667840789654
H         1.25151672222744    5.47116958653889    7.60615807908094
C        -1.79571309951024    6.09297000921733    6.33622351366605
C        -1.42268792686814    7.39689189605777    7.04221970706266
H        -0.91377914296833    8.05156556190752    6.34029845590431
H        -0.77294971728479    7.22036770097260    7.89641158185945
H        -2.32111778011551    7.90252243825333    7.39579389146042
C        -2.79533070403120    6.42765188741204    5.22946510508993
H        -3.66967928432612    6.93020111511687    5.64160255713127
H        -3.12373350452786    5.53261579735213    4.70637903889052
H        -2.31980995969392    7.08702898668072    4.51000360592414
C        -2.44694477671900    5.13172083649539    7.33395994833161
H        -3.33727186970039    5.58486178989278    7.76789497812744
H        -1.76188195425205    4.88649052591395    8.14381656125236
H        -2.74218837974566    4.20879379984266    6.83785252950039
H         0.06094403496435    6.80430360871276    4.13643476434583

