65
CSD_code = GAVXEJ | q = 0 | S = 0 | Stoichiometry = C21H40FeOSi2 | MND = 8
Fe        1.78423014947468    6.15946589570427   12.55249551795562
C         0.19379033212905    6.44023833826634   11.91829345056277
O        -0.85732664614769    6.41226566685114   11.44724909420726
C         3.46763474334826    4.98362863115171   13.22020747854358
C         3.21978100590342    4.69103831258625   11.84725338887914
C         1.89384344187334    4.18846806904670   11.73325800717215
C         1.32733776079995    4.13507757750691   13.04650681226139
C         2.29612628020939    4.62295152226854   13.96259455114818
C         4.81896468537090    5.26242007714760   13.80113199684001
H         5.42719401846888    4.35570647199165   13.77699059885738
H         4.74150611718174    5.58357386149535   14.83618031622697
H         5.34270404785614    6.02945422742705   13.23575720176438
C         4.23944695712296    4.72060082298516   10.75567478815593
H         5.02847133925855    5.43040921655983   10.98286241832712
H         3.78987804560695    4.99723212745987    9.80622556582194
H         4.69026607479213    3.73256108046990   10.64343497856602
C         1.27168304698551    3.61403385607629   10.50066409724853
H         1.36913962036735    2.52687667605575   10.50111315538726
H         1.75564894569934    3.99853911785057    9.60701195033098
H         0.21267031070207    3.85643129046148   10.44978383868938
C         0.01144729196311    3.51816352089214   13.39913378994331
H        -0.71195933574573    3.66845118643163   12.60216223562147
H        -0.38858525291389    3.95314231704137   14.31136754538550
H         0.12740733503856    2.44402914052613   13.55451455143966
C         2.17398515059868    4.59114764889367   15.45317547379398
H         1.14878369791155    4.77689545063488   15.76146188090339
H         2.80485869845117    5.34457187184287   15.91540216271354
H         2.47112490461361    3.61191993910104   15.83257958144751
Si        2.62074571996911    7.74632496403348   11.23812332782423
Si        1.68359111447670    7.70603455653488   14.12972155020122
C         4.45330985999931    8.30365991219474   11.43947070634459
H         5.11359692945337    7.83622757274337   10.71392347235469
H         4.80969959873764    8.05739023467470   12.43386681984187
H         4.52993662592169    9.37980013937205   11.32774275989187
C         1.99376991499959    8.32609748936721    9.47784888979074
C         0.57943826140146    8.88811568785490    9.61049058732548
H         0.56275105661257    9.63934472072269   10.39321844015459
H        -0.13077945152945    8.11122585706935    9.87241378944283
H         0.25946829340816    9.34553593149920    8.67498895216953
C         2.88847408025339    9.43129905909551    8.91046364408475
H         2.49934112257356    9.77318511590965    7.95122913014312
H         3.90890560556795    9.08522564307548    8.75877398482895
H         2.90007307951955   10.27588135477795    9.59447060376617
C         1.97274042364460    7.13592674780273    8.51593261439210
H         1.34479254774726    6.34088541672756    8.91167266213033
H         2.97623210266132    6.74275661790509    8.36077647747804
H         1.57498134561346    7.43861939589189    7.54813462072055
C         3.22065402941387    8.40359473226621   15.07348726718237
H         3.45930332338536    9.36767159514036   14.63296918017833
H         4.09180334669256    7.76721754412160   14.95337913008038
H         3.05492521240282    8.54896713163808   16.13920842102901
C         0.16547760664600    8.69282455092483   14.88184997234188
C        -0.28671505655500    8.11393052218115   16.22594263026022
H        -1.13775831001872    8.67503861437425   16.60882671911071
H         0.51050556076479    8.16102042048058   16.96479272910793
H        -0.58752005752605    7.07439896487647   16.11289042974224
H         1.85556986456082    9.41735846487933   12.26884319897485
C         0.54962603270890   10.16471400420001   15.04311104528851
H         0.93790103381134   10.53423607576680   14.09846116996565
H         1.30517257801879   10.30725953579795   15.81158749413340
H        -0.32494762042735   10.75597771883511   15.31201502247707
C        -0.98619619996581    8.61623067863948   13.88173274387661
H        -1.33599817406463    7.59425762639434   13.76178240783054
H        -0.64916764689538    8.98411096205264   12.91636865536809
H        -1.82285652090224    9.22976052544598   14.21410232197283

