70
CSD_code = GAVXIN | q = 1 | S = 0 | Stoichiometry = C29H33ClIrN5P(1+) | MND = 8
Ir        5.83178397344555    4.22772369418277    2.53643651122589
Cl        5.16150548243475    3.15448713153081    0.49889735166321
P         7.69630393140061    4.73291106359394    1.23828296732715
N         1.77255237969359    8.33622255441819   -0.39073391074517
C         2.91050793458966    8.90840794550457   -0.73218179090187
H         2.83328811389274    9.78000280356068   -1.36525954505677
N         4.13293419622055    8.53221760863945   -0.39511503793103
C         4.14434408567950    7.46031877916293    0.38492896511723
C         3.01231768365925    6.77047285827789    0.83152585948525
C         1.76507434759162    7.25384152022659    0.38778521217527
N         0.57272221367204    6.72887678717799    0.72001308468479
N         3.49265183160610    5.74668889384391    1.61880102660910
H         2.94102113522099    5.01010003464568    2.02945124783745
C         4.84127775127466    5.76567947953360    1.65760035552882
N         5.23849944077720    6.81887106747017    0.91001296449148
C         6.58968820101200    7.21711924422741    0.59525403440167
H         7.08871961659524    7.58465016760221    1.49696693434101
H         6.49998726495727    8.04192915313322   -0.11747872799138
C         7.37349163939491    6.05802370066151   -0.01335662792203
H         8.32852329407295    6.42665364140140   -0.39541266097371
H         6.79786961411102    5.61375101213129   -0.83012399070002
C         9.14508733122257    5.39701025212906    2.11842996395876
C         8.94147396012986    6.37452782960103    3.08853444045332
H         7.93205003160737    6.68471028230757    3.32043163678871
C        10.01690186143822    6.92728189529627    3.75884163128090
H         9.85401146066964    7.68913344576301    4.50623183095273
C        11.30344630170207    6.49606319138144    3.47485574013237
H        12.14310434630971    6.92143064553524    4.00200400849296
C        11.50994220955284    5.51408019669028    2.51969546744984
H        12.51071736944302    5.17402984231836    2.30218112751468
C        10.43683320469671    4.96355868907858    1.84023634838162
H        10.60173664786484    4.19767650393286    1.09654923388962
C         8.36661431299772    3.36426303416691    0.25455305607956
C         8.81016785608156    3.50699521548229   -1.05630851531780
H         8.77018632198794    4.46245754543685   -1.55544486242575
C         9.31092572035094    2.40859493290264   -1.73431097681875
H         9.65059416332388    2.52224411454081   -2.75253051712169
C         9.37244153325227    1.16965571749012   -1.11862502720948
H         9.75689988151014    0.31765526655250   -1.65750848244647
C         8.93365318655869    1.02459956052776    0.18785552125864
H         8.97562745011089    0.05912676690395    0.66910696570533
C         8.43390702851513    2.11723830237925    0.86921716269775
H         8.07615534436232    2.01544589865158    1.88212119366679
C         5.77699624538824    2.33191932018670    3.78864653056754
C         4.51474171121716    3.03386217828468    3.89042832727466
C         4.75278970906129    4.28383704615680    4.51777671918128
C         6.17043852417654    4.40845145314117    4.72283939168293
C         6.78673900776062    3.16314392224854    4.31447690028221
C         5.88230817312270    0.91024787757275    3.35033694068398
H         6.90177058559945    0.54057224365718    3.42120898652656
H         5.54101241405510    0.79400679252357    2.32176268568952
H         5.24798871051813    0.28734290558090    3.98166933109967
C         3.19877547298707    2.40271267119385    3.57915179007822
H         3.03322474683871    1.55517773459984    4.24528025471952
H         3.18474564815895    2.02509919722272    2.55708930927146
H         2.37413515498418    3.09964476050006    3.71277687359091
C         3.73823671946854    5.24409419037745    5.05007485550749
H         2.74984947171027    5.06384543476105    4.63484257835107
H         4.01814196931471    6.27636669055267    4.84886483871175
H         3.67275340203878    5.12377780131384    6.13241107461943
C         6.81177236118660    5.42328102748717    5.61132872718040
H         6.63611641124757    5.14473086192084    6.65223497935300
H         6.38832785436623    6.41358378853046    5.45910045471208
H         7.88556934055796    5.46667955523891    5.45133619698855
C         8.20397906786008    2.80391828214409    4.62560693493890
H         8.32681114671917    2.74988920157656    5.70822561740774
H         8.90149512762049    3.55129421004281    4.24767850990302
H         8.47534404110894    1.83810267595659    4.20773642170380
H         0.49165925342327    5.81939317069972    1.13678110123773
H        -0.23626392548681    7.12739673653431    0.27282249870606

