81
CSD_code = GAVYUA | q = 0 | S = 0 | Stoichiometry = C29H43F3NiO2P2S | MND = 4
C        12.23072763300498   11.29910650219288   15.96510325251144
H        13.19939908885958   11.74550605710877   16.12742337180728
Ni        8.02484740615728    9.31610558610737   15.30627668730683
P         7.42986911854551   10.78029199896535   16.84603910496320
P         9.18015213394258    8.08534070336327   13.86624258716004
S         6.05224606058011    8.12509929748957   15.27584123789934
O         8.84359805797342   11.44573773180610   17.32631923030059
O        10.65763501240838    8.78667753198709   13.83039570257525
C         9.71961282162737   10.15817358207184   15.53074345369169
C         5.26336343713325    8.86158295598483   13.94067476708379
F         2.49882750479372   11.73525461355927   11.02334251520516
C         4.03114142187657   10.08713363676014   11.76658939806277
C        10.82687872426598    9.77210849057026   14.78010776463636
C         5.28679187760535   10.52239345356866   12.18096273610858
C         3.99763344192244    8.44073291298428   13.51602293051279
C         9.91892231750962   11.10365986636755   16.53232705252122
C        11.15901361702770   11.68380696047021   16.75240935017817
H        11.27221249554283   12.42049051274193   17.53216865679408
F         2.60288672338969    9.91613174734493    9.88317073166657
C         3.39015826080419    9.04941401375828   12.44257014993210
C         6.54457761673741   12.35764989576506   16.29893931433482
C         8.96704910421894    7.88995066403630   12.00656977860681
C         6.81906628458147   10.14612539184924   18.50977963401205
C         3.34681235521537   10.75841630089472   10.62199240863501
C         5.88957291666428    9.91144914417560   13.25501494578933
C        12.07702614163792   10.33703114119636   14.98141766190195
H        12.91102503127067   10.01344608764330   14.37863114398120
C         5.13591496314330   12.06038090513777   15.79611828913808
H         4.47304066991654   11.77715972135818   16.60807787172177
H         5.14082026896513   11.25661449117760   15.06542483443205
H         4.72157891853836   12.94727707911623   15.31824541555381
C         7.59874457102753    7.30054415044647   11.68018939098860
H         6.80255893645238    7.90005998019699   12.11297615684144
H         7.50078297703725    6.28495340956865   12.05267353420351
H         7.45621359650167    7.28059509404910   10.60050862545976
C         9.59544827833452    6.45654941721514   14.73626897638747
F         4.20131889062318   11.35152973378456    9.76854552122311
C         7.21332793681732   11.04498084202893   19.67839908947720
H         7.01621521907327   10.51898300347874   20.61188393413859
H         6.64591579869484   11.96947106188051   19.69112632436666
H         8.27264057223646   11.28601709473682   19.64179027931863
C         5.31343749464759    9.91048640790328   18.47942234754732
H         5.02883934553721    9.38615294686305   17.56872559180544
H         4.76336654593628   10.84625187415092   18.53931236302190
H         5.02103687582509    9.29627481628864   19.33001980714930
C         6.50246064018311   13.40848616550092   17.40354252995531
H         6.24671276018003   14.37488602180241   16.97019885826284
H         7.47120910799816   13.49878612085084   17.88994756594970
H         5.74753706431093   13.16990500578938   18.14812963260912
C        10.07366676481963    7.03830336909260   11.39319475287190
H        10.06461956558158    7.16400778045946   10.31104454016934
H         9.92337536183635    5.98336714681643   11.60523339026674
H        11.04849677219539    7.34576233448544   11.76347827184692
C         9.06170792841091    9.31270217955705   11.44630900800103
H         8.79940834600940    9.31680004828910   10.38988544168567
H        10.07275494616146    9.70034252012713   11.55226686197503
H         8.38006929639898    9.98389920598615   11.96593648406417
C         7.53517729605636    8.80002600675520   18.65356082702289
H         7.33256379172518    8.35926948282770   19.62840341822630
H         8.61449575225829    8.92634925505090   18.55380670588846
H         7.17744308420395    8.10906832005285   17.89007820376233
C         7.41059815148309   12.88085789172301   15.14630619956588
H         6.88800145301312   13.66813748863246   14.60608003825091
H         7.65000425244884   12.08211464984705   14.44047403792273
H         8.34854660918927   13.28667129517234   15.52165342134687
C        10.94740681384364    5.86201432055708   14.35183626340327
H        11.71430387001066    6.63240252649476   14.31081043270898
H        10.91266957616408    5.35313186096210   13.39405981162240
H        11.24138602758411    5.13263115729516   15.10592921713810
C         8.47115522469305    5.44629640565297   14.53765368132598
H         8.59101277653751    4.61783127253416   15.23469190304676
H         8.48055492692083    5.03741627817037   13.53024409847208
H         7.50381418137047    5.91062131896527   14.72300159031662
C         9.64453032909172    6.87714361212780   16.21016844554715
H         9.70564941907208    6.00575167484523   16.86052591450941
H         8.73040174460670    7.43174583374021   16.46880077024752
H        10.51030231823944    7.51145649482302   16.40369686423796
H         5.77915299508101   11.32914689862769   11.65897233539118
H         6.88096729920029   10.22796066347695   13.60280319051514
H         3.50996897852546    7.63419479290184   14.04055838503592
H         2.41562610988428    8.72241378981640   12.11303298594124

