43
CSD_code = GAVZEJ | q = 0 | S = 0 | Stoichiometry = C10H24N2NiO6 | MND = 6
Ni        2.57935991832914    5.14009380985573    6.06296945720299
O         1.28572796346008    3.88056437069099    6.54824792997051
O         0.43848160506258    2.49640058894694    8.02657889351125
O         1.16010237220587    6.57721178638143    6.59410287754082
H         0.46238519608097    5.97868130145482    6.89621172364482
H         0.85893611028594    6.95871386929935    5.76253100940546
N         3.11824513454044    4.76871132682264    8.35747110154721
H         4.08315376627920    4.81292763636162    8.67189283233633
H         2.56128988875860    5.35404406998795    8.97759312092514
C         1.33936084231982    3.21637992762123    7.64414867494413
C         2.64648311215161    3.37895088412107    8.47355686426350
H         3.38133983127991    2.74856901951389    7.95738677274093
C         2.46756283414524    2.87379138250173    9.91439484821657
H         2.01828657747770    1.88034001303486    9.83124294859021
C         1.50979915420314    3.75169089214726   10.71971975385333
H         0.56284970919309    3.84589085843475   10.19522854373112
H         1.92412643228973    4.74368545390366   10.90042836190031
H         1.31775724484175    3.29482412571778   11.68742906337241
C         3.81489385210036    2.75327608264386   10.62497304762694
H         3.68314755661384    2.29824838465685   11.60379539425069
H         4.27015807700419    3.73232024103478   10.77173930898461
H         4.50039871644674    2.13479048335663   10.05004515916924
O         3.87262810990114    3.88201338022085    5.57878528536704
O         4.72042828880525    2.49671196578906    4.10194335053670
O         3.99915984428266    6.57888065154950    5.53202273562042
H         4.69705144761441    5.98048745086615    5.22999846951215
H         4.30049189110994    6.95896217611203    6.36428076450688
N         2.04109918090281    4.76895687970019    3.76856598704168
H         1.07643390389264    4.81333075095236    3.45342361546358
H         2.59860236499623    5.35398794149902    3.14869216964153
C         3.81901184416432    3.21635074157848    4.48380380758136
C         2.51265537917651    3.37903000958075    3.65329703970878
H         1.77732288284345    2.74900653574791    4.16915905777085
C         2.69239686252053    2.87327366272793    2.21277009365494
H         3.14206860292246    1.88005776934348    2.29662962048530
C         3.65004643575464    3.75122052033889    1.40738368706360
H         4.59667379491177    3.84646448896884    1.93228021199544
H         3.23510900291501    4.74279901042560    1.22573579284987
H         3.84291864479644    3.29381053359083    0.44009994139370
C         1.34539393080136    2.75185299940326    1.50171314195500
H         1.47773165627635    2.29699702486109    0.52287661104873
H         0.88952026545394    3.73062048775827    1.35487520558512
H         0.66010977088677    2.13287851050296    2.07637572348069

