79
CSD_code = GAVZAH | q = 0 | S = 0 | Stoichiometry = C30H39BNiO6P2 | MND = 4
B        14.45504854338108    7.96908626054488   10.98373758068410
C        11.51713446115769   11.48948934334604   10.31568133607954
C        11.87374343817287   12.78125357769873   10.70407485699053
C        10.95746596560014   13.82368865831286   10.67743868861625
H        11.26818950634321   14.80538767172732   10.99742196409451
C         9.66749307846693   13.58389275247169   10.23877855761971
H         8.95172714855096   14.39046127424109   10.21681100319933
C         9.29088126447305   12.32137699734285    9.81439368234601
H         8.29582535024214   12.12519304979591    9.44835646704295
C        10.21686733259843   11.28936115203707    9.84878437403674
C        12.92882613194262    7.58891504008568   12.64761744901214
C        12.06013416549360    7.65193620949518   13.71389216004654
H        11.72542805958122    8.59718610852186   14.11279779553236
C        11.61182281754544    6.44896478437487   14.25516710977228
H        10.93265094251193    6.47400451468814   15.09395302650551
C        12.01820420468097    5.23526695631098   13.73471835618938
H        11.65336567092895    4.31808432859251   14.17242477374631
C        12.89304255569400    5.16845868205386   12.65496587551194
H        13.21374601262137    4.22454034598597   12.24505293119479
C        13.35028600742002    6.35512335238547   12.12419396694200
C        15.38984443176732    8.91134978523790    9.10567565631443
C        15.69404036817848    9.34418399420442    7.83561024269093
H        14.93083762836860    9.43636862378037    7.07826804484651
C        17.02293625632834    9.65514003328399    7.55790120443106
H        17.28638347315849    9.99626850402146    6.56800221557755
C        18.00128481307006    9.53192228548473    8.52596614419911
H        19.02368149850251    9.78370925659759    8.28594544065336
C        17.69993928479897    9.07648614265069    9.80588624852991
H        18.46317029955126    8.96451558839906   10.55913273130902
C        16.38778763748576    8.75444645273160   10.08316483692673
C        14.51665872792660   11.71570396582240   12.96902031922843
H        14.80138566081173   12.75494757262545   13.17640385715300
C        15.65463516918745   10.77111296042827   13.32405839972338
H        15.39875654148937    9.74865977796843   13.05965001608586
H        15.85291226732338   10.81097366317704   14.39418864914402
H        16.56874567959741   11.03535787344002   12.79571680133498
C        13.24262211791520   11.38804179903971   13.74228416187076
H        12.46936500664395   12.13054417155566   13.54693629493617
H        13.43893798537998   11.36656795433283   14.81285615173233
H        12.87146618982696   10.41214499861072   13.43579008254158
C        15.60976279596300   12.29623801986473   10.28877058794867
H        16.34509065970730   11.48574584872192   10.29263788269782
C        16.18964614690065   13.53799603459477   10.95650729676199
H        15.41313047217855   14.28666111498343   11.09865152597731
H        16.96226027832536   13.96353255747710   10.31812792322810
H        16.64040263153194   13.30704853075829   11.91766588668096
C        15.21077895660000   12.59573423545844    8.84644623237056
H        14.77774734374596   11.71100935063811    8.38271803616101
H        16.08082803534680   12.89043215007669    8.26331019572996
H        14.47985640298676   13.40244700150181    8.81618135221799
C        10.23130213779730    7.43972716681734    9.63559385943379
H         9.37372643032516    7.46909424277360    8.95197919188528
C         9.70903245091903    7.43087753771902   11.06779669352498
H        10.53209157657318    7.39761105714853   11.77728422617579
H         9.08178243225985    6.55712493553753   11.23548264513218
H         9.11604584555552    8.32341694394340   11.26165575615735
C        11.11093323791245    6.23243617754264    9.33941233379091
H        11.34274212086413    6.16079305506852    8.27873233589433
H        10.60347411964014    5.31772844799475    9.64118583799817
H        12.04766758144984    6.29397582191310    9.88706524336459
C        11.52898946187863    8.98777592561404    7.50486084678153
H        12.32704461148773    8.25177737280999    7.37075633652092
C        10.32173609722178    8.62824753145627    6.64790827679290
H        10.04750299452426    7.58199669732521    6.75356272998395
H        10.54939105020969    8.81066067711076    5.59867819340598
H         9.46818215983255    9.24517573893558    6.92322432955914
C        12.06278045880851   10.37296010142599    7.14428030985505
H        11.26440215156285   11.11294896673945    7.19210665374952
H        12.48044498149745   10.38249279579260    6.13872484199588
H        12.84359353595535   10.66864791797364    7.85539722726901
Ni       12.77225258725166   10.07971092669428   10.35280901662256
O        13.49386995128273    8.61281436957791   11.94872015084509
O         9.86706222199453   10.03692476961530    9.39752684942878
O        13.16284134680189   13.01632630280463   11.11011730916463
O        14.19158060342350    6.52678712754753   11.08415458359381
O        14.16999857692507    8.57481988372238    9.61394602168793
O        15.87763656950066    8.29073904659146   11.23510725835870
P        11.15093539180008    9.01383009762249    9.33257890532648
P        14.09757989627011   11.65811705462889   11.16351566087345

