71
CSD_code = GAWCEP | q = 0 | S = 0 | Stoichiometry = C34H26CuN5O5 | MND = 5
O        -2.42722720614913   10.08441433325167    9.25339774406963
O        -1.91187637710869   12.86474379209156    9.12547934968238
N         0.10382807719448    9.59793793840597   11.19801390482297
N         0.71493894342791   12.10405960308414   10.45327451983653
C        -4.00965369632454   11.77249697974400    9.69130324640791
N        -3.73886616354169   13.98909774703666    9.99204434676152
N        -5.00357411154281   13.62869115467850   10.38633872887440
H        -5.45095097025145   14.19171132628715   11.09665089854138
C        -3.63216944990448    8.52154819525869   11.75394480963893
H        -2.95271732965844    9.36034342138877   11.75698344013844
C        -0.25454996709750    8.38948848124785   11.55867889635741
H        -0.89048059005966    7.85441265575534   10.86772037914775
C        -4.57085196097030    8.40474274320355   10.70706404998110
C        -5.50875513187628    7.33807138984235   10.73323656220689
C        -3.59861254703267   10.40547725972331    9.51245188289788
C        -2.40335297172711   17.93885603150547   10.39493739560053
C         1.23158761374441   11.64973739914669   11.60791396642224
C        -4.63381396387123    9.34293130973979    9.64452384341067
C        -6.53073559787457    8.17734280393027    8.71405280846040
H        -7.27701381648496    8.10420728188589    7.93633142657071
C        -5.60453807628818    9.22845650479131    8.67834206334644
H        -5.63805595752085    9.94290752832240    7.86804011706897
C        -5.14824195545696   12.29228068681135   10.28516866162486
C         0.90221506971831   10.31305834032211   12.00641754731835
C        -6.38080689547495   11.63361804133495   10.77599234943853
H        -6.94207472997091   11.19188135751229    9.95453209510432
H        -7.01026586106828   12.35140550709245   11.29625730008581
H        -6.11361982110578   10.83210998843981   11.46202051409434
C        -6.48016900278000    7.24717043207433    9.71458304587278
H        -7.18442586484757    6.42777412709006    9.74033393231477
C         1.39723488449041    9.80637132571798   13.22679148142511
C        -4.50691025523753    6.52309235375283   12.77298848560714
H        -4.46471918653270    5.80072882905133   13.57566522955917
C        -5.44341406117691    6.40025122733423   11.78517109436070
H        -6.15363169979522    5.58529941186784   11.79699028140379
C        -3.60293141307941    7.59665337028714   12.76109567630002
H        -2.88489557476417    7.69565895903124   13.56211395701394
C        -3.07046938724822   12.86955384032044    9.54673773298189
C        -3.28508597656884   15.30725947925225   10.12307066627768
C        -3.73961099085491   17.66311614574491   10.13681619145563
H        -4.44485448613354   18.47603082873432   10.03946197166777
C         2.23839131634007   10.62565723214453   14.02994963423523
H         2.60346815685252   10.22217648089327   14.96368284441881
C         0.96371091471199   13.34320023814029   10.08875529408020
H         0.53028569644631   13.65304233913671    9.14863881932997
C         2.28630467676243   13.76780689957978   12.03471713091508
H         2.88907819779932   14.41438168280428   12.65625494855190
C        -1.94487201878359   15.56600825377091   10.38668309481333
H        -1.25539966182620   14.74869551482933   10.51285367226802
C        -1.92454622656558   19.34815641025687   10.56504021177994
H        -2.63451155317666   20.05552011406375   10.14371144570184
H        -0.95878695933823   19.48779709786600   10.08403376797588
H        -1.80535872599704   19.57478700602577   11.62479814161206
C         1.73495729663649   14.21746051093750   10.86048427340285
H         1.88952111922120   15.23118453421520   10.52474679973682
C         2.54963601822693   11.89046697244223   13.65120967651818
H         3.16775705095953   12.51711760714173   14.27797455414560
C        -4.18396467444452   16.36165259188128    9.99785210213677
H        -5.22467669165642   16.16902381316713    9.77959872693974
C         0.15516598753911    7.80619429291202   12.76423225873604
H        -0.18136674800910    6.81353478418850   13.02054964862209
C         2.04735684795338   12.44207488069122   12.43948306504049
C         0.99078708710035    8.51055090190023   13.59577923217602
H         1.33623993071787    8.09095823536287   14.53040284258124
C        -1.51889466241219   16.87246968397853   10.51607351045977
H        -0.47885918970187   17.06814880830242   10.73114089137958
O        -2.15644405796387   11.41099693789320   11.92673782693769
N        -2.20132082193588   12.59609115462739   12.35182717540789
O        -3.29277339300672   13.07330984198183   12.62652252712350
O        -1.16881396140128   13.23625164994681   12.45625429970480
Cu       -0.98055249237725   11.10349339684439   10.12727898904686

