82
CSD_code = GAWDIU | q = 0 | S = 0 | Stoichiometry = C29H46NiO3P2S | MND = 4
Ni        5.30422439942101   10.82433363148836    6.72227032815150
C         3.64702880919930   11.73530992184056    6.48700465987547
C         3.52899204212831   12.77232709693127    5.56687816018741
C         1.19304188815028   12.97908160904679    6.01651786844950
H         0.24569969349201   13.46499024505072    5.84073042622207
C         2.48897434356729   11.31177165943371    7.13277395978998
C         1.26580056106396   11.92702447999333    6.91396591005877
H         0.38931578306678   11.57344899315352    7.43437893459105
C         2.31776252004588   13.40437688266751    5.33007159056134
H         2.26624799790673   14.21111669378341    4.61556919849098
P         6.02315662560006   12.39645383592746    5.36263406297998
P         4.04324987580713    9.49981915803560    7.97115305303377
S         7.23436328067479    9.57570516726306    6.73512354345606
O         2.58074225205083   10.23612528516327    7.99253542572787
O         4.65855681435193   13.15245573542562    4.86957097692691
C         6.71025316957613   11.90076618934361    3.68145047633176
C         6.92248136206290   13.88768753498871    6.09633772944064
C         3.63835625170467    7.97117494722573    6.93091825416877
C         7.06436213477448   15.02985827965594    5.09535569413348
H         7.85595817720375   14.83091667234095    4.37761824512665
H         7.32169834890105   15.94518857995244    5.62780952679331
H         6.13036940918666   15.19637736109043    4.56325259720258
C         6.00758385832642   14.34092405491558    7.24047924842784
H         5.10004468757779   14.79904600377526    6.85073275601514
H         6.51754264837496   15.06935122845832    7.86859813101370
H         5.71524008850751   13.49525926203078    7.86640904057227
C         9.07654467146186   11.15554091739628   10.56100477332803
C         5.47200913600140    8.45952760176148   10.15393259494086
H         5.56273520140488    7.47809858416543    9.69771460269262
H         5.55645233112558    8.34109945211243   11.23359377420280
H         6.30476721614506    9.07030766759769    9.81573228159245
C         7.95464957449097   10.16375584580577    8.19823129594620
C         8.28707452315723   13.49424571411577    6.65172393731092
H         8.20972851430066   12.62827054032638    7.30337112791669
H         8.69892012819952   14.31837565155768    7.23333362677325
H         8.98900308140381   13.26011490422952    5.85710435372694
C         6.41074385295057   12.91513222592414    2.58112201536933
H         5.35962076575992   13.19227148905853    2.58570063098976
H         6.64038592207006   12.46745632673884    1.61464819650954
H         7.00866328461952   13.81476572116508    2.68169637188302
C         9.72393930496233   10.16179449535662    9.83463662745380
H        10.66660568494126    9.75616084006153   10.16768325144099
C         4.13924994970655    9.11729806452710    9.81184295946440
C         9.16922768782242    9.67253711233638    8.66636536733688
H         9.67628132995706    8.90067617598003    8.10783095295724
C         7.85814456084247   11.65260359698207   10.09792919714762
H         7.36314561923051   12.42365417136237   10.66775885272376
C         7.31152605353416   11.16207096470315    8.93464598212643
H         6.35151207862373   11.54160362263748    8.55767916729319
C         4.72989862448750    6.91904525701078    7.09093196991505
H         5.71383674718169    7.37862460947188    7.00764871189680
H         4.63660502933531    6.16615700228923    6.30910498563789
H         4.65442069686249    6.41373731646815    8.05076198982785
C         8.20373060667589   11.61056028665079    3.77394072811103
H         8.78442274134250   12.52795047447228    3.83105689604591
H         8.52730634476305   11.06450789414609    2.88872480826124
H         8.41543718067817   10.99709752555682    4.64826168770338
C         2.25466250654873    7.37825612065194    7.18231619331545
H         2.22616907508539    6.77439296215215    8.08352921468563
H         1.98522899749549    6.73710695306349    6.34341078503519
H         1.50435124956211    8.16185647110420    7.26258126109473
C         3.68089453601974    8.52933976222976    5.50347196104311
H         2.84422059874102    9.20607485805536    5.32607855004804
H         3.63350292799418    7.72524358521984    4.77028464452159
H         4.62222298100956    9.07663380532739    5.34967518058556
C         5.96613615083203   10.59834744396282    3.37322084741834
H         6.25845058171029    9.83131981030603    4.09043825103749
H         6.21450270191327   10.23995136687632    2.37531728467158
H         4.88682151121294   10.75135059410687    3.42268726054811
O         9.53973380410340   11.70995460466503   11.72715490520548
C        10.76606485725227   11.25546526985379   12.23638223164030
H        11.58784151035087   11.43856323438117   11.53533050580041
H        10.73163871773220   10.18823956437787   12.48180347152189
H        10.93837238425721   11.82705027703296   13.14744780529931
C         4.04807596184217   10.47973186359503   10.50607747084716
H         4.79343083887353   11.16801213097818   10.11236661645788
H         4.22421664596400   10.36680287356868   11.57455404568207
H         3.06263820019297   10.91843939119081   10.36341964247412
C         2.97813550725798    8.24399913310145   10.27642520962127
H         2.03492354500712    8.61332561932292    9.88172524955429
H         2.92467821414780    8.26577658099893   11.36453957105762
H         3.11615052809403    7.21013316290779    9.97230832458775

