56
CSD_code = GAWFUI | q = 0 | S = 0 | Stoichiometry = C28H17F3O6PRe | MND = 6
Re        5.26835997956761   10.92430330828656   13.61805129529698
P         7.32585864742954   12.31640327619524   13.90146192472032
F         8.71373429965349    8.36620473880362   10.38199693536730
F         6.82675732904192    8.52031683988162    9.35216189127904
F         8.04813048120296   10.27307956201453    9.63706266047718
O         6.26306165855514   10.48992379731871   11.58511767551023
O         7.02742057609780    8.60210914958333   12.47395705679714
O         6.76466032518110    8.56342480012448   15.00206150087259
O         3.04874661274816    8.96289892377555   12.70664993596650
O         3.94546662735271   11.57082480945401   16.34300159079523
O         3.63755740861438   13.28626231874873   12.43398627741139
C         8.74228589776804   11.84191841092914   12.85248154416240
C         9.29014961713287   10.58342659173797   13.09724502955775
H         8.88311975845895    9.96262118134614   13.88528499032199
C        10.35153549200199   10.12574440355121   12.34114893084881
H        10.75726095846642    9.14309579535822   12.52695980895823
C        10.87936583499524   10.92358956637360   11.33820301274636
H        11.69902897974130   10.56098442990025   10.73699464698893
C        10.35596741248137   12.18453135655206   11.11075584782490
H        10.77238804844658   12.81293696731405   10.33783532513174
C         9.29069280926145   12.64882564271749   11.86325683685197
H         8.89467744258535   13.63591625724974   11.67652808415572
C         7.07783825031778   14.10525156421940   13.66905874112489
C         6.61514565973756   14.60732319574894   12.41995402407122
C         6.39682649414068   13.77917837094442   11.29960542923390
H         6.58528491867863   12.71636871102102   11.37547052180835
C         5.95334575609613   14.29727032206800   10.11465382386624
H         5.78985267331949   13.64542013902870    9.26997920496750
C         5.70880769931818   15.67269373321628    9.98939889410338
H         5.36023674648595   16.06697606636087    9.04664919471175
C         5.90744550104853   16.50350380802599   11.05591902731352
H         5.71850536428024   17.56393347852388   10.97112407299479
C         6.35926218851039   15.99911431997024   12.29374743647773
C         6.55326251882982   16.84175562209458   13.40766780497697
H         6.35530365865772   17.89822315126863   13.29908185425363
C         6.97102639029378   16.33005090375876   14.60367749701536
H         7.10594920160190   16.97429968417196   15.45956079607414
C         7.22428058827888   14.95911025299458   14.73817154076485
H         7.53704782737737   14.57920834823356   15.69971454583732
C         8.16762936801651   12.20907436280003   15.51546464624097
C         7.57998263382625   11.56593109428023   16.59678031576331
H         6.59176670844901   11.13713562188603   16.49384859346944
C         8.25899658433948   11.46793340598526   17.79977096005553
H         7.79643256037982   10.96386891499362   18.63472227619488
C         9.52599249341478   12.00992370971334   17.92764808246616
H        10.05681465843765   11.92940507879890   18.86429904167369
C        10.11716033188897   12.65394972680194   16.85065872176422
H        11.10634573297394   13.07605121331276   16.94848792406420
C         9.44514604594554   12.75274862261761   15.64835367738354
H         9.90575722101107   13.25218539121425   14.80626089151464
C         6.33466914017151    9.31591935836331   14.26066451516460
C         3.83458297306708    9.69519052684258   13.08058161178257
C         4.45633644354121   11.31651745134557   15.34618026945197
C         4.27976373629943   12.44683934763307   12.85483890358973
C         6.90326708338060    9.42981944159179   11.56850866637309
C         7.63650865111617    9.13838293296341   10.22219369142211

