81
CSD_code = GAWGET | q = 0 | S = 0 | Stoichiometry = C29H46NiO2P2S | MND = 4
C         0.66809042502593    6.65676081853091    6.33498691435786
C         0.85942974068076    7.97766063749226    6.72343411841684
C        -0.16410751277429    8.72829671176207    7.28261897258078
H         0.01768759478907    9.75239058510210    7.56967728068781
C        -1.40627206341392    8.14267418961593    7.46023929888267
H        -2.20857318604527    8.71826016317999    7.89576124584843
C        -1.63413695858623    6.82808597419692    7.08602496862387
H        -2.59996803800844    6.36691928987529    7.22202364418069
C        -0.59487825961950    6.10366850870632    6.52510223833964
C         0.97600722769945    2.84718456403718    6.81414616209995
C         1.64463504101579    3.71993352538941    7.88512010648724
H         0.92154918341818    4.40414701103001    8.33059567553342
H         2.45217790530649    4.31946895173145    7.43021395272917
H         2.07458103819845    3.10985895213090    8.67880951714082
C        -0.25919398580901    2.16863898133403    7.39504909789539
H        -0.68689644773285    1.45853760116474    6.69216023169491
H        -1.02054397074529    2.90131543054785    7.65306971423056
H         0.01542375726428    1.62510576171246    8.29872617196251
C         1.97375499233836    1.81823594419252    6.29221213929618
H         2.50385990819597    1.35510981894818    7.12437264480063
H         2.69770132269287    2.29205913384046    5.63260849914777
H         1.47187803503789    1.03015414047921    5.73741123532910
C        -0.16842979267999    3.42422749066042    3.91214099284546
C        -1.54262741694765    2.80750568826196    4.14965316116195
H        -2.18252241320305    3.48351918703794    4.71062027697989
H        -1.46419082113585    1.86990725776901    4.69329191298133
H        -2.01648702273162    2.60188290281631    3.19045943534979
C         0.76463882343931    2.42725090200545    3.23549659175820
H         0.43566318516725    2.26026486880286    2.21058724627199
H         0.76249802756228    1.46935307986830    3.74722550317455
H         1.78169225264401    2.81237304065152    3.20998485179136
C        -0.28830047591642    4.67331318481482    3.03382715705462
H         0.70578727562756    5.08800656819085    2.85790378537515
H        -0.90641520130129    5.43132238466408    3.51558201273289
H        -0.73333128910576    4.42781731956640    2.07094383073147
C         4.61982827308378    7.90782993314409    7.08955603910126
C         4.42953867216139    6.84068666708079    8.17267952597992
H         4.60012923596918    5.84547079707334    7.76354343537646
H         3.41232678966905    6.88153298927685    8.56588355382720
H         5.12301786817761    6.99651128143010    8.99797583039939
C         4.48203332843656    9.29237471650932    7.71933197355508
H         3.54464862730219    9.38534021779552    8.26032598661901
H         4.52503732282869   10.07719529207287    6.97024730824972
H         5.29925069728783    9.44562954465250    8.42362980782475
C         6.00205149214121    7.77476748030457    6.46074752444495
H         6.75968939532835    7.73897413335771    7.24361964171318
H         6.22252842168673    8.62532280170548    5.82027140718095
H         6.08639681162176    6.86497441159705    5.87141089545468
C         3.44651550312607    8.38348055513497    4.20785935761569
C         3.67626707958133    9.88593144992940    4.31799824657549
H         4.67957234506079   10.10738351835081    4.67507062577947
H         2.95205131873547   10.33721712007641    4.99326525070004
H         3.56152213839154   10.34552034490008    3.33663342391432
C         4.54860665338971    7.70794052430294    3.39768621773565
H         4.49972531964964    8.04226116517104    2.36193252332452
H         4.41191185138605    6.62652883829513    3.40946590085561
H         5.53736237396785    7.94569082454140    3.77860394710490
C         2.10152547961887    8.09960623410785    3.52703602628046
H         2.13005599429535    8.38442509075870    2.47645569336551
H         1.29129452636198    8.64445052888352    4.01074063144710
H         1.88337008192274    7.01949901619262    3.58455026074293
C         4.99148431924724    4.06415342779273    5.35045828683573
H         5.45330480414788    5.01562787015281    5.61317248635781
H         4.66455489767484    3.54820827043311    6.25408960654847
C         5.92073667052589    3.21705236530063    4.54835858064724
C         5.83767651784097    1.83080038040176    4.59535434024925
H         5.10937793840862    1.36141079959482    5.24176037171437
C         6.67689832726544    1.05008081542620    3.82200573743129
H         6.60292248325977   -0.02700569821407    3.86931437892165
C         7.60829442871093    1.64512765217272    2.98871973077651
H         8.26397908677456    1.03511313719369    2.38453184561967
C         7.69334469878573    3.02580443598239    2.93049994758147
H         8.41612704413673    3.49644990030063    2.27951299577743
C         6.85362035312083    3.80601676974971    3.70316350216653
H         6.91747686937852    4.88394507331142    3.64910933007870
Ni        2.07768480856622    5.66879448426369    5.52601363692337
O        -0.78149228504318    4.79304295360918    6.12474656431433
O         2.11118005314235    8.52935540817871    6.54921068438032
P         0.56994123262660    4.12432008466558    5.48782487109261
P         3.22007057579893    7.53306616849870    5.87460301688140
S         3.51017869413085    4.41617965445397    4.31614846207447

