35
CSD_code = GAWHIW | q = 0 | S = 0 | Stoichiometry = C12H14Br2N2O4Zn | MND = 4
C         9.58094959943302    8.63619470870264   -0.83891903113741
H         9.16702915037272    9.22729291160057   -0.01795933663039
H         9.88238324000285    9.29816538501318   -1.64821980051666
H        10.45023017207093    8.07253645463450   -0.48822690792918
C         8.30140215432246    6.65959145746277    0.74663698825151
H         9.08016004904963    7.19992025468839    1.25678125532767
Zn        4.95313629095282    5.04527918363970    3.33794978754655
Br        3.47632329197206    3.34374862903142    4.08464174935441
Br        5.22373475318065    7.35523498542495    2.86488742683303
O         6.66362713319439    4.54090946237589    4.46445214470896
N         6.65276634509830    3.36666442798859    5.01738431740160
O         5.85995751354391    4.22828530627882    1.61683978031080
N         6.56893284051968    5.05007055538379    0.90518200765265
O         8.60266522402294    7.78015868466662   -1.39379024299900
C         6.73352794322849    2.04213191410934    6.97375094031077
H         6.83586159227381    1.97116242532305    8.04354236567022
O         6.42428998492201   -0.27438111503523    6.90540974492502
C         6.26650206315332    5.23825255925770   -0.39115544800604
H         5.43895777537812    4.65607199474222   -0.76667138103250
C         6.38600126458651    1.01821903722463    4.84248081395239
H         6.20583320525392    0.17639377801798    4.19630556344239
C         6.95483056466466    6.13833406041531   -1.15769847583190
H         6.69215883030749    6.28957156158277   -2.19117016047643
C         7.99229593966452    6.89579253481591   -0.59378656378918
C         6.79648322157609    3.25785954353175    6.34956257511485
H         6.93633226427152    4.18653277668673    6.88135798727548
C         6.50462954017953    0.87740786387561    6.22605176896432
C         6.46486984468960    2.26818682614822    4.27448839755448
H         6.35196802942287    2.42725581453755    3.21213176606152
C         7.57555128031467    5.73609085132137    1.46190545100733
H         7.76206974482569    5.54063983293005    2.50765925117402
C         6.08894904708015   -1.45489458945071    6.20437655968466
H         5.12752460146876   -1.35077602648718    5.69490816920465
H         6.01744043696814   -2.23346299171102    6.96123836536662
H         6.86462506801770   -1.72224105872444    5.48097217126572

