64
CSD_code = GAWJOG | q = 1 | S = 0 | Stoichiometry = C28H27Br2MoN4O2(1+) | MND = 8
Mo        4.60702005837817   -1.84186908259649    1.84548324503063
Br        2.67167893435503   -0.48060969684577    8.23873824031018
Br        1.40591900907905    4.08502181673906    2.49183848332463
C         5.63388253350297   -1.48890990016296    0.22760067964503
C         3.51148394041575   -2.62166445668713    4.68815780349238
H         3.51527337754361   -3.65791159172795    4.36949235830352
O         6.36645901808428   -1.23712652784417   -0.61988393840813
N         3.88441032179861   -1.75564376976264    3.83781227964358
C         2.28899619031531    2.43119204688748    2.22829213018119
N         6.36779848881470    0.65615610736457    4.63558032820769
N         3.54020926042678   -0.02849885650670    1.86543779290778
O         6.46730342248490   -4.27176681130007    2.21022085378737
C         6.17586109157167    1.29934776412378    5.89273573927799
C         2.68945675384891    1.67261135931387    3.32404471100642
H         2.50082538448170    2.03200516582155    4.32170577536098
N         5.98248321736021   -0.61252577005111    2.88188515640528
C         3.99005675986857   -0.34632125289458    4.21006287622232
C         7.28397367574471   -0.21883992343384    2.83787272153999
H         7.93768828226566   -0.52407960306434    2.04440544251971
C         2.86932907490327   -2.64536356031908    0.62959192443459
C         3.96366160809734   -2.53942642835326   -0.29957340905889
H         3.76620635685009   -1.89949710361432   -1.15870708640583
H         4.43781785966341   -3.47399334235195   -0.59902096879967
C         3.32216155749657    0.46542016344995    3.09601209513483
C         5.75058586596787   -3.39679880578956    2.05885990750882
C         5.79911516623154    2.64064191378092    5.92757323223546
C         6.33182471148794    0.54402713898307    7.05756884416662
C         5.45586516665955   -0.07229788559779    3.96966024725779
C         2.58677915330485    1.96854053667895    0.95103909268932
H         2.34169492929201    2.55123303311049    0.07850951852374
C         3.03260972943360   -3.55820201227191    1.67057584357833
H         3.54914476216153   -4.49422372623486    1.48646107881141
H         2.20052425676938   -3.65342184206801    2.36313613428064
C         3.53727795047583    0.00170527890153    5.59781500246643
H         3.58499089214578    1.03801319581545    5.88675633821703
C         3.20606383311845    0.74251052383553    0.82728579712343
H         3.47484761192370    0.36755137995368   -0.15023088986567
C         5.57256730191038    3.22212438353036    7.16757502039783
H         5.27969920777472    4.26028719836657    7.21056724029098
C         3.15509538956856   -0.93181654267563    6.45499211192824
C         3.08872091788508   -2.37760428131530    6.09756921434120
H         2.07116139289849   -2.76053682472645    6.24516681721987
H         3.72366927873434   -2.96882025476578    6.76876766759840
C         5.71161731434678    2.50058492275785    8.34515198959259
C         7.53377366797414    0.57018239868115    3.92452806459961
H         8.42279869991564    1.06786993882863    4.25170999709543
C         6.09402616108673    1.16505249319097    8.27180361959729
H         6.20555212142820    0.59826837378697    9.18357524605584
C         6.75920765343075   -0.89074835869180    6.99271499097623
H         6.54518435286942   -1.39142690467031    7.93269329124863
H         7.83318765196481   -0.95275864987146    6.81607779313691
H         6.26120892444234   -1.42774623389974    6.18422819365189
C         5.44231455780148    3.12710721544770    9.67365928615266
H         4.56166372006438    2.67322516441075   10.12697903400748
H         5.27181658963461    4.19538017299589    9.57888257892653
H         6.27998769666788    2.96243033871311   10.34810037679352
C         5.65391673365355    3.43602563930409    4.66566391364696
H         6.62363037720210    3.83089291627630    4.36242311151853
H         4.98669506650445    4.27956164127318    4.82128946754322
H         5.27049684739985    2.82946955825895    3.84516705515640
C         1.57092348938754   -1.92031642467215    0.42615842091055
H         1.09335921827621   -1.67482412233848    1.37542280181425
H         0.89762989950922   -2.58749510998259   -0.11676840665065
H         1.67701556137065   -1.01495412350903   -0.16689427859374

