35
CSD_code = GAWJOD | q = 1 | S = 0 | Stoichiometry = C9H21BrN3Zn(1+) | MND = 4
Zn        2.08694241737698    4.34378717030272    1.23030935410864
Br        3.27189519458183    5.57224399996752   -0.26905305161015
N         1.07974727621972    5.56295803774916    2.62191682785960
C        -0.39548942412558    5.54422535251052    2.53685330549768
C        -0.90419811868528    5.05726957207751    1.17917430977467
C        -0.77089533671867    3.54357450211540    0.98881146506673
N         0.55660269752453    3.15371648987211    0.47054861801612
C         0.81241183178677    1.70517910313373    0.61932046924174
C         1.35717463923717    1.33402614042305    2.00046846657242
C         2.85035114507527    1.61277431287834    2.18719402352071
N         3.14356533908071    3.03658608906732    2.45592868235345
C         2.99348150320858    3.38025434710197    3.88465838084953
C         2.97310942445197    4.89366834167816    4.12018780736127
C         1.57487035214321    5.50409102035016    4.01414915364726
H         1.37555659987064    6.46844061111510    2.25006700459159
H        -0.79969356260597    6.54090753756080    2.74193966929461
H        -0.77579437981808    4.86996059101751    3.30864756221279
H        -0.39404667219019    5.58707243188017    0.36934658946903
H        -1.96173635132286    5.31525320173010    1.11615790229552
H        -1.54890840033055    3.18863183059487    0.30405533049933
H        -0.92427795358871    3.04713246600856    1.94920045954611
H         0.53039358387415    3.34302283550509   -0.53302437673022
H         1.53698659401938    1.40526610640516   -0.14178025833325
H        -0.11456328907798    1.15032843185948    0.43478023626898
H         1.20394352132718    0.26331116390090    2.13762227971542
H         0.78361801400564    1.84417564371328    2.77490992637848
H         3.38293265504634    1.31987719157292    1.27894132150134
H         3.23298210113621    0.99972914679928    3.01137816929533
H         4.13215544047864    3.17586700193429    2.23897758131668
H         3.81083783057931    2.92771541710741    4.45695797928942
H         2.05806187485923    2.94777137387828    4.24548832952292
H         3.65872335961727    5.39335214245503    3.42941272531175
H         3.33588597601106    5.08759766554281    5.13002526478527
H         1.58110317868175    6.50469484261162    4.45788326440142
H         0.88667093827017    4.88943788757911    4.60014522710762

