55
CSD_code = GAWKIB | q = 1 | S = 0 | Stoichiometry = C25H22N4O3Re(1+) | MND = 6
Re       -2.72482430498906    8.41444499263349   25.96714709267397
O        -5.77597917736444    8.04261237948503   26.32999853417093
N        -2.66514319359707    7.60236620143819   23.82422585487957
N        -0.63760701623189    8.56178212065233   25.42234380863628
N        -3.12778209280329   10.06784796506961   24.62205171656103
C        -2.32552727939583    6.75156980770768   26.91377760646219
C        -5.70104027480281   10.83423020282307   18.90771475327605
C        -2.62204205510191    9.45259361169744   27.61784355604665
C         1.04881249527038    8.08343403542725   23.79111252064758
H         1.29686628507655    7.73617545099582   22.80159438592867
C        -4.35359621260961   11.13349063601021   19.07304352523911
H        -3.75614293316357   11.37995722768541   18.20826382554065
C        -5.90388470622132   10.51162570452220   21.30256357300862
C        -3.62083714024919   11.89251068705872   23.47002310963988
H        -3.78636834224450   12.88743187190005   23.11430137758110
N        -3.94848022839739   10.79639420839668   22.72030622380806
O        -2.07268226023962    5.76088877780393   27.41682956274446
C        -0.28862890174596    8.18644214501317   24.17675745406255
C        -6.75864017888158   10.17566850576010   22.48731889498177
H        -6.85714228061449    9.09439168390116   22.59211043238527
H        -7.75802782702923   10.58026372906403   22.34937955811622
H        -6.35238435464967   10.57411091928511   23.41437418894302
C        -4.54679947022220   10.80790675271480   21.42960160046260
C         1.67489864236996    8.81985858416385   25.96545469942289
H         2.41324254842148    9.08602542367370   26.70326930835937
C        -3.75822467719564   11.13081237902287   20.32324140789463
C        -6.45767154958404   10.52807609699005   20.03005636614997
H        -7.50747067885393   10.30233884730703   19.91767718833130
C        -4.64748172879886    8.18356687638933   26.23717096539299
C        -1.38057336649479    7.94254547509380   23.23719704811458
C        -1.27402486825469    8.09667625309394   21.90363809424405
H        -0.33563738717689    8.37013678404925   21.45035500114112
C        -3.63917436453913    9.71485294640720   23.45014919552759
C        -3.11435289148455   11.42789121028043   24.64733759719381
H        -2.75335707923896   11.97102743827541   25.49730458185687
C        -3.75869890011517    8.26106992865965   23.07510466207085
C        -3.64664465042666    8.01856247933059   21.59246527981851
H        -4.55075664697888    7.93102695930034   21.01518777856401
C         2.04386019692467    8.40112709407905   24.69467821782578
H         3.08267884954776    8.32055328434402   24.41659445174316
C         0.33070882948395    8.87542077020456   26.28357524171967
H         0.01396226351048    9.17892910914129   27.27263302219708
C        -2.42842280101313    7.93476951400990   21.05364908897024
H        -2.27899141761399    7.78572409184557   19.99736386916386
C        -6.32556061548887   10.87169888995707   17.55105345027236
H        -7.20571382262602   10.23596256792167   17.50716333487964
H        -5.61861499518302   10.55722256146930   16.78743564174462
H        -6.63498620551502   11.89083112099679   17.31894369029285
C        -2.30765306031566   11.47016848255308   20.48464448234317
H        -1.79129794103115   11.38562285172062   19.53269280060043
H        -1.82196224320789   10.81333286827093   21.20611708315119
H        -2.19485632457428   12.49563213698304   20.83677383596181
O        -2.53108744684405   10.11621939243188   28.54123664202958
H        -4.71240412354364    7.86571677974159   23.45136250753576
H        -2.78095009394768    6.58486118524895   23.77129030969024

