63
CSD_code = GAWKEX | q = 1 | S = 0 | Stoichiometry = C27H26N4O5Re(1+) | MND = 6
Re       -0.53472326020177    0.34748943268416   10.45085916334879
O         1.58852588130474   -1.54936291845867    4.87075186667461
O         4.15608599735296    4.01848957507329    8.79721391308559
N         0.65583440137007    1.89295438550992    9.56126115588502
N         1.36200325691686    0.62942178141518   11.60436246286233
N         2.84111579157454    2.04643173571542   12.39261614022426
C         2.69635275060515    2.17528512535518    8.29285242028426
H         3.32963223856598    1.71743120152617    7.55289867463208
O        -1.84682541090724    2.09647033029593   12.63920910537254
C         1.10472573375854    0.27358035206482    7.92588763862302
C         0.53793989583782   -2.21096961511775    6.96344772597179
H         0.29317845999992   -3.21014434542984    6.64545895834512
C         3.72762992469352    5.39541524278916   13.65627666194218
H         3.28445228374826    6.18954033949708   14.23796841793952
N         0.42903572513020   -0.58783589612204    8.71511971362312
C         2.09758408477291    3.89943498255066    9.94668508518470
H         1.48057082045964    4.63743149876093    9.42192231031447
H         2.65268527447682    4.43009266838283   10.71999403090438
C         5.79293714638807    6.79252748109677   13.46249953843218
H         6.85298205856772    6.65555342790019   13.26871398907577
H         5.65918811251645    7.10267892391914   14.49622620451423
H         5.42937967941192    7.59897428986172   12.82580579672033
C         5.10993824303598    3.63262714154692    7.82457051654529
H         5.90191372357827    4.37627990111144    7.87709626445055
H         4.67255622758368    3.63462762368976    6.82342112408866
H         5.51928306676479    2.64345020002317    8.04432641996541
C         3.04966267411712    3.30503041108191    8.95063932332067
C        -2.14288543957560    0.41406500384431    9.34626189981479
C         1.58464647439380    4.12721935926163   13.92877731240945
H         1.47361445648044    4.70809782170001   14.84020123375398
H         1.32218227368675    3.09352057828008   14.14453434227281
H         0.86936136265872    4.51500516669788   13.20221701607602
C         1.45053926922895    1.53661674820194    8.60025927706319
C         1.20230529127729   -1.31255780405978    6.12032612057414
C         3.03201939872354    0.85212015375852   13.03448263042295
H         3.78793857125479    0.73334448968065   13.78189136513612
C         5.58897208797296    4.50460855489642   12.45046062135554
H         6.60050192805628    4.59955159367490   12.08543686058360
C         1.49651264959672   -0.04424839591489    6.64207989812583
H         1.99989527315065    0.67100677524784    6.01276091708936
C        -1.10582128803319   -1.30347961552465   11.32549453639842
C         4.88429145308903    3.34177496284001   12.17905628634924
C         5.52047104400058    2.22611278480062   11.40604927030495
H         5.93037382892705    1.48152808102777   12.08896873894074
H         6.33806701635575    2.60682479100123   10.79984765368353
H         4.80246075708979    1.72360090699583   10.75827384273580
C         2.10655066151844   -0.01651443551190   12.53967467891247
H         1.92750028018604   -1.04179530239438   12.79276247400899
C         3.57735057260119    3.23535547249730   12.65589668057717
C        -1.38712085505083    1.41619216606923   11.84480709753656
C         2.98378050381019    4.25225782678384   13.40734124911698
C         5.02703975793129    5.53963374138513   13.18552017170985
C         1.18741093219618    2.83034402607093   10.54859463685452
H         0.33870515235873    3.32772976867983   11.03857639884743
C         1.30554827815102   -2.80484712683662    4.27797630825838
H         1.69905409386307   -2.74354124178597    3.26564419161604
H         0.22949762812496   -2.99020009629852    4.23977134660139
H         1.80402640768007   -3.61658839486383    4.81353897173609
C         1.82281996218724    1.87510727437162   11.53457771317427
O        -3.05222598352829    0.49923255958843    8.66371182583894
O        -1.33906195166644   -2.30307190930894   11.82584077966067
C         0.17255354731314   -1.79964455856408    8.22895084477161
H        -0.35602017743638   -2.47776700302197    8.88565018535856

