56
CSD_code = GAWLAT | q = 0 | S = 0 | Stoichiometry = C23H18BrN2O3ReS8 | MND = 6
Re        2.35915614118931    1.25850974937705    2.03233494913023
S        -0.56266390395561    6.80371000255695    3.34233450926497
S        -1.57915615649494    4.77258073969385    1.03604525482071
S        -0.82745400872442    4.50512363092184    5.31037597586975
S        -1.71877039789609    2.62642237525555    3.19689846017443
S         0.13982622880884    1.93155667115362    7.10520113282364
S        -0.74919485202459    0.13260524042282    4.93356237849272
S         0.90292656813104   -2.19169852785652    5.97181444396371
S         1.83047951788781   -0.24569961716927    8.40019609792387
Br        4.76388191563182    2.20512863350657    1.99146742081053
C         3.19130732666385   -0.50541376615336    2.15286599062207
C         2.40250937697280    1.43468798026682    3.97391358626816
C         0.56634067281883    0.54155527091616    1.85657660470538
C         2.75887591119639    0.41558822310474   -0.93681679925555
H         2.87979261479636   -0.56139184937213   -0.48598442839706
C         2.90872741497440    0.57884791211927   -2.29999292685797
H         3.15760325539375   -0.26712918680855   -2.91926106369114
C         2.73046248734626    1.84414587847157   -2.84087971882257
H         2.83061878838830    2.01269583614265   -3.90176638415735
C         2.42536733642213    2.88886214750399   -1.99160017670719
H         2.27739471226115    3.87898060900703   -2.38875926600144
C         2.31247564520483    2.65400844568574   -0.62106073476223
C         2.04606780062753    3.71722336229130    0.35196633982178
C         2.03631950734677    5.07022200712907    0.01244330647920
H         2.21027476356437    5.37948279804645   -1.00409228323748
C         1.81978561432388    6.01934500634544    0.98684938393354
H         1.80020274712138    7.06896386999826    0.73854256215060
C         1.65932345742697    4.24076589909407    2.55982622564774
H         1.53701060668073    3.87973261526718    3.57416624279613
C         1.62614942841300    5.60657984920931    2.30269252830127
C         1.27899513848969    6.56704163100175    3.37625603287458
H         1.69006648915239    7.55812276108552    3.20106940239533
H         1.54179989666355    6.20971601582120    4.37048005657068
C        -1.00341250377296    5.14257876980506    3.66675032162960
C        -1.83240916613935    3.16991246198533    0.22088267840827
H        -0.98345703817833    2.51986202031426    0.41133201573218
H        -1.91445906284127    3.38603550688360   -0.83971778330180
H        -2.74901442165724    2.71408923631002    0.58232381206357
C        -1.39651175143058    4.28498573043952    2.70757659885923
C        -0.98797600009677    2.83285033609469    4.78845952220673
C        -0.58804459987548    1.77956207176319    5.52003646699299
C         0.39344770401349   -0.52747857896037    6.10753253102931
C         0.79198593954224    0.28493122875971    7.10186011393758
C         0.83735243285226   -2.40334578921478    4.16619427555625
H        -0.19789900238782   -2.44433241347354    3.84014281863903
H         1.33591452487786   -3.34365397631600    3.95586253150276
H         1.35982019695854   -1.57756757344041    3.68536362272095
C         2.96864501153204    1.17425760998772    8.49290075608136
H         3.42612318357193    1.32688310700211    7.52118989362038
H         3.72050410507824    0.91014050290139    9.22879567928659
H         2.42190092458160    2.05700497466664    8.81046905348923
N         2.46638290651070    1.41747949889893   -0.11049114298759
N         1.86261174747962    3.31753487987078    1.62526577020654
O         3.79371741286869   -1.47890353906455    2.16657295250509
O         2.55065986370486    1.62882329997140    5.09422425549876
O        -0.45918445204670    0.06357842084119    1.65730815240456

