66
CSD_code = GAWMID | q = 0 | S = 0 | Stoichiometry = C29H26BN3RuS6 | MND = 8
B         6.01387653165011    0.18201405638586    4.02981028675145
C         4.57328949375219    1.93287007017607    7.08299937683401
C         4.70544297455588    2.13938482276514    8.44420134283635
H         3.99721016395317    2.75968920389854    8.96899083053554
C         5.75987681966196    1.53176835744276    9.09992096467914
H         5.88621781792314    1.67931373771345   10.16093020242114
C         6.65257311406078    0.72911142727609    8.40034838182328
H         7.46727132675984    0.25412090585508    8.92519573889680
C         6.52064931685456    0.52208320395058    7.04040612098620
H         7.21658435244496   -0.11094504478250    6.51913349991947
C         5.47291612953554    1.13441887269248    6.36107105474651
C         4.08956896026061    1.73874572014365    4.66701422106873
C         8.59285888525226    0.29250177607238    4.42838239195777
C         8.81612450313635   -0.99576650631690    4.90734779786923
H         8.03002549187705   -1.73200184644288    4.87137026104730
C        10.06070888162112   -1.31950246090581    5.41235418558370
H        10.23381910309734   -2.31797264763576    5.78321936227109
C        11.09050388243766   -0.38666873958220    5.44763667165337
H        12.05165010870920   -0.66223648489601    5.85194794623725
C        10.89644632678843    0.88946605906726    4.95261761005707
H        11.68840280390137    1.62055699157572    4.95394714766801
C         9.65314485111173    1.21156823645078    4.43922818204003
C         7.57723814634964    2.03386134666514    3.38855976662575
C         0.27570647303578    4.10560314319259    0.60022720602977
C        -0.99609671166463    4.64584504514428    0.59689044097876
H        -1.18412181772176    5.60244294853243    0.13474696529147
C        -2.01266805520032    3.92902678871869    1.20222499566843
H        -3.01358129513461    4.33398604126505    1.21184910357506
C        -1.76257207897774    2.69755130284342    1.79984068795729
H        -2.57487022274905    2.16162214762225    2.26860706803995
C        -0.49576100704960    2.15090770255723    1.80380313395264
H        -0.28659363104050    1.19961478948649    2.26685558885571
C         0.54007333078025    2.85431283542779    1.19888391919755
C         2.58774247396603    3.30574016178076    0.51978453969273
C         3.94520922328127   -0.73685294332761    1.19861382287491
H         3.20334376180330   -0.88664534300379    1.98865326595533
C         4.94068278473181   -1.87121984298134    1.07121644430917
H         5.12919778981296   -2.27356294437606    2.06938658520541
H         4.48726354858495   -2.67341704611372    0.47845953299825
C         6.28258042738854   -1.44664272147007    0.43859109340787
H         6.27173631082866   -1.64185855274217   -0.63533236797084
H         7.07921911726197   -2.05595676039847    0.87036145291292
C         6.61404032865003    0.01710417113135    0.65942134087591
H         7.51750465165818    0.18739153494181    1.25053469163195
C         6.24702659289259    1.01156833377433   -0.23525895209788
H         6.87454886243526    1.90478829418111   -0.29284975401801
C         5.44595985507524    0.75564864405547   -1.48980180271911
H         5.17881159579052    1.72351932289262   -1.91575535738490
H         6.08498583687327    0.24175009389884   -2.21686044168756
C         4.15810717512632   -0.05366447759911   -1.24605274321691
H         4.33254996589161   -1.11581017852835   -1.43142794093517
H         3.40138587377394    0.27971384158167   -1.95771480355842
C         3.60592836044830    0.10839536881150    0.15438515184098
H         2.64015042526507    0.60516750082811    0.22022556815631
N         5.18434517199667    1.05020355857545    5.01160664489105
N         7.42616562362567    0.80195825211314    3.89561176567133
N         1.83677833894852    2.44674172615056    1.11681651671421
Ru        4.96255212183046    1.16868662377037    1.55069742718317
S         3.31264552483453    1.86934347530897    3.18628441292620
S         3.34444259851698    2.56275734314708    6.01650979230455
S         9.15732670095717    2.71647986539769    3.70127061295971
S         6.45957523504924    2.88924603732737    2.48956206511032
S         4.24957698439072    3.14044124671443    0.24494557491783
S         1.74874878420250    4.76269431855928   -0.06401828952638
H         6.06339137779745   -0.93445459519976    4.41195350386626
H         5.46056160651593    0.23885188853986    2.90891819270789

