158
CSD_code = GAWNEZ | q = 0 | S = 0 | Stoichiometry = C72H81ClN2OPt | MND = 4
Pt        5.10429443594765    6.85252543038825    5.19764485873261
Cl        3.23169696118635    5.90048426149012    4.42012872818604
O         3.96700985593572    7.95424791494038    6.32771070442248
H         3.04158414706450    7.71433977205544    6.19996640903051
N         6.33002518723639    5.81567744033592    4.07669861513821
N         6.82859227263056    7.65773215989312    5.84153537092129
C         7.58631222368417    6.12266415635765    4.25167406951691
C         7.86584167373418    7.16181750575744    5.22854461181992
C         9.30890540749915    7.34017767023485    5.29216590683363
C        10.18045545327298    8.10634008715074    6.02908155542275
H         9.83115725914170    8.80877014801769    6.76980554298962
C        11.56040060690874    7.95744252384876    5.80173784053991
H        12.23920482350452    8.56398371704235    6.38281524052080
C        12.07391146303231    7.08077470780877    4.87664355431035
H        13.14185577750320    7.00479765026726    4.73400063194971
C        11.21047583126867    6.26644047691972    4.10948801529212
C        11.56694058631186    5.30483771421666    3.13570143172203
H        12.61025103046694    5.14344354156397    2.90782850429327
C        10.59638521768623    4.57984223896505    2.48778398994197
H        10.89173542187621    3.85033489870317    1.74791454210363
C         9.22343399726795    4.73920863567858    2.74807319440365
H         8.50102984765223    4.13840421115347    2.21759503354043
C         8.84151201721202    5.66720089104595    3.68728451760297
C         9.84397310041436    6.42328231455230    4.34921899384718
C         5.94524919764695    4.83912615594013    3.14153815731275
C         5.93783614081240    3.49728881819083    3.49809010610914
H         6.26098997225465    3.20227657436340    4.48570164416878
C         5.47836775069633    2.54684061406208    2.59731779882657
C         5.05138551043783    2.94535888929493    1.33740275251215
H         4.69118635043615    2.20546108924067    0.63752172661740
C         5.07179181204408    4.28507573507801    0.97313582377151
C         5.52135608856982    5.23444767481829    1.87997159061290
H         5.52198342266232    6.28236751955843    1.61744033454093
C         5.42588615962124    1.12146708058735    2.99939883584630
C         6.48308265181616    0.26794214378241    2.67897019609586
C         6.42457994772540   -1.05475508621013    3.09607082376198
H         7.23693530185465   -1.72851229563197    2.86842985389594
C         5.33481415177038   -1.52091212601056    3.80649889410607
H         5.30183259379622   -2.55227385785642    4.12701273621850
C         4.28738857547320   -0.67093991609278    4.10717947728842
H         3.44139334664255   -1.04803050514861    4.66147293960978
C         4.31498674585959    0.65874822877755    3.70939361838913
C         7.68356514985458    0.77809934286127    1.91327504400742
H         7.46814258936950    1.79619911684781    1.57262041370230
C         8.90941416752830    0.83306421416829    2.82821852352709
H         9.77247497910275    1.21238628836252    2.28456730606591
H         9.15004377655305   -0.15709672174156    3.20771891120324
H         8.72088703812077    1.48869886160376    3.67608633450974
C         7.96348226693121   -0.07504314127210    0.67517189541543
H         8.76008079846350    0.37251909175408    0.08424254605240
H         7.07221105414279   -0.14448343512913    0.05550628930134
H         8.26967607340745   -1.08085859141160    0.95027421503499
C         3.16996937462410    1.58523774393806    4.04874183148580
H         3.34171232064772    2.55326679168000    3.57005777273312
C         3.10512389063550    1.82162291503582    5.55896876383816
H         2.32298162691896    2.54132492942351    5.78687047691424
H         4.05008517017733    2.22164862888874    5.91942664325255
H         2.89629928937774    0.89614606853677    6.09120475725122
C         1.84021803910947    1.03895311648276    3.52624357985444
H         1.05262837629180    1.77005821068053    3.69182025695752
H         1.56349547045360    0.11776460269025    4.03319010900875
H         1.90507710138461    0.83796626236224    2.45884862180575
C         4.59780168935206    4.70221723916402   -0.36706339669430
C         3.28378002413304    5.15602957502282   -0.51448009516321
C         2.84342440079896    5.51003575249310   -1.78218147218029
H         1.82869303434991    5.84847244067438   -1.92286616031506
C         3.69018562560614    5.43501601094862   -2.87241569945125
H         3.33333805857170    5.71690031949809   -3.85263780827459
C         4.99211695340960    5.00165830758001   -2.71175293535583
H         5.64565807335470    4.95300676953350   -3.56999655923154
C         5.46198035836600    4.62670411388706   -1.46032922090340
C         2.35364772746041    5.21143517863352    0.67507046500673
H         2.94842079246936    5.19748216501747    1.59198887035577
C         1.45900996494570    3.96897162182938    0.68096861432551
H         0.80388987701814    3.98819350795001    1.54827504405611
H         2.06458194965340    3.06651207257753    0.72693078390204
H         0.84862298135746    3.93036136838159   -0.21935428197908
C         1.50905907299918    6.48532802909806    0.70152744838183
H         1.02102473930241    6.57272485793256    1.66898760943859
H         0.74099781981728    6.47501241874327   -0.06827079344019
H         2.13777963021922    7.36094852769908    0.55589079101631
C         6.88888015995476    4.15462398824550   -1.29020665476256
H         7.05189817899801    3.91763818298802   -0.23368595063883
C         7.87560764739403    5.25781391249303   -1.67809310449439
H         8.89761144201730    4.93163948555436   -1.49433460486209
H         7.68891974319230    6.15422251835990   -1.09037210583692
H         7.78157360594717    5.51240454519988   -2.73059968697112
C         7.14134818321755    2.88254593720147   -2.10122488430167
H         8.15454525591300    2.52284343242469   -1.93364938567385
H         7.01514851500586    3.06749275993686   -3.16486241387527
H         6.44453391318607    2.10208033730840   -1.80399438855775
C         6.87693141792993    8.72643469870201    6.73306848981065
C         6.28014699176268    8.59402096926082    7.98327789850573
H         5.84938532617291    7.64586136284407    8.26713126261257
C         6.22766226367102    9.67848422818055    8.84581891884948
C         6.76493936698488   10.89710994842347    8.44589281329709
H         6.71011508974431   11.74900277694386    9.10848084227189
C         7.35453999537316   11.03995452454916    7.19564937726225
C         7.42701971797488    9.94613869206637    6.34547307331310
H         7.86038199382693   10.05258229579860    5.36106865033248
C         5.57994511153171    9.55305989643526   10.17334515565432
C         6.36867290566414    9.40405462994229   11.31538255432224
C         5.74696724124852    9.30709399714076   12.55337456371734
H         6.34070303408374    9.18393236467752   13.44675398366909
C         4.37165826354246    9.36988150631091   12.65495446675626
H         3.89816630272400    9.30265802524771   13.62394265375919
C         3.59839884817516    9.51764493104779   11.51828521402817
H         2.52575128049287    9.56773182014015   11.61682746642727
C         4.18364808384342    9.60007489325405   10.26276239316122
C         7.87597434403120    9.32216131128145   11.22011871544653
H         8.16908277290285    9.46792888020266   10.17553130750489
C         8.54160642779023   10.41913866564714   12.05293005291711
H         9.62050013268950   10.39396379185638   11.91475472387027
H         8.33084359323198   10.28999806478482   13.11132012282741
H         8.17691857338519   11.39790414264221   11.74924972100935
C         8.36161072968843    7.93730606196198   11.65448075710104
H         9.44135904654219    7.86247186121374   11.54035401635473
H         7.89459471337971    7.16646573750347   11.04516883133524
H         8.11266586822271    7.74803706579254   12.69567079509506
C         3.34493327503056    9.79898769271089    9.02112123114899
H         3.87462126122777    9.37407687514389    8.16380795686558
C         1.98358445867184    9.10798358776395    9.09717864733366
H         1.51567359829804    9.12755870963178    8.11581332963316
H         1.31561029023482    9.60695248766469    9.79601460195274
H         2.09955189941052    8.06993400871120    9.39944653177512
C         3.16303313280709   11.30048777869513    8.77643066269152
H         2.57096951586844   11.46353967795955    7.87912848014017
H         4.12697471898345   11.78629052899374    8.64563478838622
H         2.65362706252712   11.76500658162341    9.61933108741001
C         7.85813952568928   12.36205531419233    6.74829655246447
C         9.14806464683916   12.77510236563940    7.08624009744465
C         9.59173343118201   14.01640582388315    6.65061075181225
H        10.58498694414804   14.35378750336654    6.90623125838492
C         8.77462484838561   14.82922902030629    5.88913988286304
H         9.13293492247495   15.79113291303004    5.55204142241485
C         7.49834444225032   14.41359508031448    5.56110684397255
H         6.86855530551458   15.05752759490734    4.96630137292480
C         7.01945053492538   13.18276505911790    5.98841171034318
C        10.05235176707203   11.89699637073275    7.92096215818157
H         9.53327697464712   10.95289154743014    8.11821791787439
C        11.35163410768111   11.58006243434124    7.17753114034344
H        11.95708327436021   10.88923381750158    7.76153549256755
H        11.93445734650081   12.48204437020128    7.00979848440805
H        11.13680785032788   11.12751359489960    6.21133688603691
C        10.34540501936278   12.56029883560700    9.26807813582134
H        10.96165772327950   11.90855645122287    9.88379756914540
H         9.41773699083284   12.76067570536065    9.79878213245906
H        10.87149840568103   13.50167183029990    9.13061314679226
C         5.61799029854600   12.74555456896394    5.62692158291260
H         5.39518519223166   11.80696350745628    6.14245628988598
C         4.58222081580616   13.77925443919476    6.07331092837974
H         3.57940689247102   13.39435294626022    5.90407118091914
H         4.68732589739218   14.70944758631508    5.52062226409464
H         4.69320935411401   13.99505384375103    7.13378333922875
C         5.51382301754641   12.48877033647162    4.12188386286419
H         4.51575816797049   12.13709584597585    3.87171677956258
H         6.23096232414073   11.72992058128999    3.81657859690440
H         5.71362703962449   13.39698916222559    3.55763459273496

