35
CSD_code = GAWNAU | q = 0 | S = 0 | Stoichiometry = C12H19ClN2Ni | MND = 4
Ni        2.74252233298051    4.33392146837074   -0.64472810615198
Cl        1.83325420287661    4.16149337110796   -2.53530092985993
N         4.02505845990426    5.87248889993678   -1.10122784356870
N         1.69300722742161    2.84026379533116    0.29741513911636
C         3.53373938837233    4.48398272156115    1.00017102029475
C         4.64879805747952    5.30470047565131    1.16448645918960
C         5.24384020601485    5.42013938721656    2.41149157241135
H         6.10673867349518    6.05789799790111    2.54406100779908
C         4.73067510944562    4.70976688191432    3.48549952638918
H         5.19780786510245    4.79783413680482    4.45537823688147
C         3.62548499031743    3.88765807580032    3.33010636821250
H         3.23343392566918    3.33856163713703    4.17491300694846
C         3.02131759121879    3.77686201083030    2.08706930782988
C         4.58463000851742    5.89017427239583   -2.45480048458691
H         3.77681429739814    5.84409188014737   -3.18360111586195
H         5.22419797504289    5.02073623178870   -2.60250144350471
H         5.17026028258740    6.80355709754274   -2.61815634632878
C         3.13734507880104    7.03587075716729   -0.94810772832567
H         3.67532771611156    7.96215628003345   -1.19014102409396
H         2.77419889650803    7.09506584766269    0.07936927684471
H         2.28569875260036    6.93676382911242   -1.62288027800746
C         1.78926172290349    2.97578700645580    1.77332363905098
H         0.91150332650538    3.52444178882531    2.13098400963488
H         1.78717213419684    1.98668416375301    2.25130574705214
C         2.44973225333605    1.65212001464150   -0.12762185143174
H         1.98912286475731    0.74055586315945    0.27596556625041
H         3.47860614362127    1.71772360707135    0.23039350949487
H         2.45365970784107    1.59201207027684   -1.21703169719301
C         0.29288412680555    2.66429628305056   -0.09535142133680
H         0.22971978639828    2.54749541509142   -1.17618006587475
H        -0.28380265566801    3.54511691487855    0.18460858923753
H        -0.13616708319941    1.77967725438333    0.39179500887559
C         5.12031847268055    5.96163870618764   -0.10209333962104
H         5.98603796678249    5.41009993277462   -0.48387438046448
H         5.42360019517259    7.00736392403672    0.04386106469742

