52
CSD_code = GAWPAY | q = 1 | S = 0 | Stoichiometry = C20H26N2O2RhS(1+) | MND = 8
Rh       -0.17282447214588    8.46555287068105    4.79342354018971
S        -1.25231165442577    6.86577110148032    3.43047595286194
O        -0.20422560893139    9.60359393998637    3.01348828942787
O        -1.45510148755255    9.29334087468946   -0.30162002730821
N         3.26135286438673    6.43842292688989    3.36321697197825
N         1.63847995006069    7.73810553227358    4.05069388804598
C        -1.61772914358166    9.51028183122570    6.00046026922037
C        -0.33795062453506   10.15301300358510    6.21813871099559
C         0.55290078587964    9.19227902170654    6.76033920658060
C        -0.15933999117049    7.94030856139748    6.87750411914104
C        -1.52245596803648    8.16869699678519    6.48541935374891
C        -2.87015039130041   10.22699234622202    5.61082341314189
H        -2.66039292938583   11.00870412165625    4.88426334390242
H        -3.30861895088061   10.69215622879117    6.49510539231408
H        -3.60255177459877    9.54365113108937    5.18753992742782
C        -0.08018837295176   11.60412126450584    5.99385542100891
H         0.96116623759141   11.85540454962485    6.17326885350236
H        -0.70180826304478   12.18803749276549    6.67355670190916
H        -0.33851577429648   11.88852210994392    4.97477777898656
C         1.94044170312590    9.44533510959388    7.24988439886309
H         2.55405175690237    8.55014897650420    7.18283746517568
H         1.89735674026763    9.74664540718291    8.29776180945236
H         2.42352942144204   10.24043505407256    6.68739046629139
C         0.34260260939699    6.71820517351465    7.57682326555104
H        -0.16064624306073    5.82477174381494    7.21534129262121
H         0.14423831429068    6.80945418798472    8.64569277018438
H         1.41454689130755    6.59521414305922    7.44175598187655
C        -2.64741219670293    7.20570336356628    6.65309208305843
H        -3.46189997375964    7.42082246607786    5.96654400809520
H        -3.02769600632008    7.28878616907843    7.67240875030451
H        -2.32213151108114    6.18027772150513    6.49477862459014
C        -0.77137370777978    9.09224760463045    1.97989736603945
C        -0.86690637746896    9.80720653749155    0.77963596204844
C        -1.98314184711812    8.08284104667280   -0.28192411684058
H        -2.42941862354578    7.79579302755123   -1.22112776664121
C        -1.95461909045104    7.29089422848956    0.82882380987709
H        -2.39266647925565    6.30737947431501    0.81826066434085
C        -1.34378776324125    7.77600197846403    1.99465127231804
C        -0.30822574388702   11.17841638833118    0.62115098162458
H        -0.51609400822191   11.76211409266646    1.51506359962954
H        -0.74063438011461   11.65755355413012   -0.25237840673057
H         0.77460103383700   11.13612520824575    0.50070130137980
C         2.03043830965147    6.48791913943323    3.88963453658741
H         1.44549056684574    5.62220651713946    4.13631009315707
C         2.65713928944225    8.52597987462091    3.60998177920241
H         2.58428826899463    9.59591986605076    3.61979940750882
C         3.67248826060489    7.72424962843784    3.17864525261304
H         4.63059210197622    7.96525895131169    2.76747219040286
C         4.01851836106443    5.25853108897829    3.04847040073884
H         4.27771688736499    5.24808169903381    1.98879757080747
H         3.42740371481266    4.37442137911906    3.27820872995736
H         4.94027529005658    5.23340329314165    3.63198334808249

