52
CSD_code = GAWPIG | q = 1 | S = 0 | Stoichiometry = C20H26IrN2O2S(1+) | MND = 8
C        -1.41928783870689    7.66258132664639    2.02727517694666
C        -0.88321876615852    8.99586825686595    1.98116290987571
C        -1.07184101450135    9.70802019869802    0.79113886755684
C        -2.20671971190318    7.95638776490125   -0.20509862416675
H        -2.70290274063745    7.65907904373229   -1.11571917650789
C        -2.08813810536541    7.16444596806993    0.89916760552273
H        -2.49920628765003    6.16943308730633    0.91270108696117
C        -0.56349646716108   11.09454478010852    0.59630665385937
H        -0.21138113420625   11.47718611845048    1.54912622671748
H        -1.35030932225987   11.73479201728601    0.20231413139817
H         0.25994060624875   11.10315426815347   -0.11741747492186
C         2.11847091113640    6.56651045668009    3.94844218991053
H         1.57474025418273    5.67761475018566    4.20197629874968
C         2.64448156650791    8.62781583144639    3.64064600073164
H         2.51777851633192    9.69088833424184    3.62649204432916
C         3.70745385188862    7.87222852791268    3.24397669436317
H         4.65906339353057    8.15595423082520    2.84535041156856
C         4.18121929231137    5.42607160664733    3.16726830175076
H         4.46032427606886    5.41011928406892    2.11302979045865
H         3.63214559240196    4.51715991836895    3.40298525060780
H         5.09189979847720    5.45894612415974    3.76712130982990
C        -1.64062899691065    8.24629221862411    6.46980425134088
C        -1.61422386574292    9.59595801986611    6.02713377423968
C        -0.29757301774687   10.13055247473181    6.30025124178126
C         0.48612215343704    9.10026930003210    6.88786908756138
C        -0.31597297153901    7.90607725158709    6.93485321260235
C        -2.83227093972212    7.35798684427672    6.56637585974695
H        -3.62668790085469    7.68313020770452    5.90049853501738
H        -3.21076835854986    7.38268479879586    7.58914708744029
H        -2.57894144977356    6.32828826361065    6.32541499453962
C        -2.77594705237280   10.41385359630149    5.57181802426762
H        -2.47265714556561   11.12212020008590    4.80404557726431
H        -3.17759869790208   10.97930124830618    6.41370422086440
H        -3.56926569972749    9.78723818947857    5.17265964295724
C         0.07903951782965   11.56118844241984    6.12941345672093
H         1.14960407007592   11.70742114599707    6.24045274933916
H        -0.43104037906013   12.16321361632946    6.88249066284061
H        -0.22491740199484   11.92519944345688    5.15009482737472
C         1.85675326560731    9.25030456617031    7.45727697564354
H         2.39700541194901    8.30720772940378    7.44062754338108
H         1.77956512091000    9.57631697098564    8.49544396338912
H         2.43558780517002    9.99219693266043    6.91270739328259
C         0.03723399813677    6.64222679548220    7.64769473912949
H        -0.48089835695971    5.79178872120873    7.21197892682533
H        -0.25980084695540    6.71802501433244    8.69449390317902
H         1.10721238269165    6.45406172713087    7.61293446750666
Ir       -0.17284856977010    8.43896538100562    4.82497564575854
N         3.35918221617541    6.57099054282786    3.44610086277715
N         1.65656058724136    7.79831279772991    4.07742925387808
O        -1.71266998600716    9.17990921391531   -0.25359234264688
O        -0.26342551111398    9.51986820699101    2.97975953020224
S        -1.22044605149645    6.74004824378760    3.44609625624894

