48
CSD_code = GAWPUS | q = 0 | S = 0 | Stoichiometry = C22H20N2O2PdS | MND = 4
C         6.08440435005026    6.81696493598649   12.85997380368121
C         5.26127577084980    6.11703426328026   11.99990966828852
H         5.69224183182413    5.34336261804098   11.38253195742040
C         3.91361295015338    6.42555115011216   11.94365365569677
H         3.26659961438402    5.87509806849253   11.27625678337287
C         3.38256962829171    7.43393326005875   12.73912475067746
C         4.23085812199769    8.13698774849722   13.59197341871558
H         3.82559402712597    8.92403592020354   14.21146155646199
C         5.57898086252763    7.83644547667854   13.65529385011271
H         6.24509225848074    8.38536680369115   14.33889075129564
C         1.92767365745623    7.78199266651220   12.66915661397495
H         1.53949916522449    8.01591385514423   13.65783855471213
H         1.35127021394809    6.96256367315559   12.24780866507362
H         1.78363378189316    8.65904016393277   12.03743177104601
C         7.71450261907824    5.45019828796813   14.44714302953233
C         7.28506415449674    4.14278449613352   14.34241086639295
H         7.07158376865313    3.74989089270054   13.35931738094533
C         7.15518055763373    3.36886426827186   15.47825459460277
H         6.82164532754737    2.34503781268758   15.40924616113455
C         7.46366577541857    3.93679126795913   16.70701951302293
H         7.36542253564726    3.34724398222191   17.60697529697590
C         7.90391927539153    5.23899968561308   16.81144256033720
H         8.15241693156359    5.65012191750065   17.77510782393741
C         8.05554566182093    6.05144027522598   15.67249163501728
C         8.90542083010696    8.00500522816538   16.83193418136048
C         9.21864211758990    9.44953059552456   16.57418337007823
H         9.93846182146748    9.87563555343357   17.26296204701770
C         8.07699678520021   10.33325331356045   16.12087554734985
H         8.07368984669903   11.35723282726471   16.47280811142908
H         7.08629086561658    9.88882687503375   16.07885049933719
C         9.13265344641112    9.90879778740985   15.14579723209840
H         9.84063870480228   10.67924583932881   14.82783690469150
C         7.77868544239500    9.86560537833987   11.52895521463431
H         6.89370846523130   10.08894658906813   12.11849531916931
C         7.82177056150259   10.12467574002681   10.16998972558001
H         6.96323608961980   10.54806198218058    9.67344916715541
C         8.97945086410757    9.82725668666933    9.46700727028582
H         9.04352790248496   10.01485862897787    8.40647303789796
C        10.05477895880464    9.28736708349757   10.15723543365251
H        10.97396019935238    9.04274104470791    9.64956237934463
C         9.93116544663610    9.05993726044249   11.51659986309050
H        10.75175189809321    8.64172218936102   12.10004245609355
N         8.49422376316642    7.36111874773449   15.69495127969999
N         8.81153981707295    9.34118299290693   12.18679703562639
O         8.17060422962370    5.58646345843861   11.82564607997534
O         9.01650302801437    7.51274488658294   17.94330347399820
S         7.84794450437402    6.44389356687172   12.96560453919342
Pd        8.60020157003105    8.38593225451829   13.95262516882897

