43
CSD_code = GAWQIE | q = 0 | S = 0 | Stoichiometry = C16H24S2Zr | MND = 12
Zr        5.92784579646504    1.49690296030266    3.91995507849937
S         7.67473288837680    3.01985670651692    2.98692765325632
C         6.23758244288402   -0.46792751022196    5.48757428782696
C         6.03815605976757    0.69046951617275    6.26887989192602
C         7.16123603476045    1.53568944248805    6.08442934479799
C         8.04424228726965    0.89476279600030    5.18782476433516
C         7.47015208486236   -0.33511211877277    4.81183545923505
C         6.97011161232269    4.04077369162160    1.62298322630202
C         8.07747872480347    4.92453094142831    1.06428552198600
C         5.79662345391391    4.86851676445984    2.12977080438000
H         5.62166641275967   -1.35829747045775    5.51473641752606
H         5.23863238567200    0.83389052388399    6.98827287594318
H         7.39471226752337    2.42762264612279    6.65243072575975
H         9.03048301688887    1.24889431729452    4.91502903710998
H         7.96251098049971   -1.10209766282931    4.22713071154692
H         6.63947207137960    3.34025309086163    0.84692410596545
H         8.90231325169634    4.31427518166399    0.70417771097435
H         8.45516247781494    5.58334639319918    1.84324451814028
H         7.69859698165819    5.52823655477610    0.24146018104426
H         6.16761794432844    5.66874275965016    2.76758559017535
H         5.10055344878593    4.24936959763471    2.71010945280385
H         5.26279942483588    5.31721352896264    1.29235031213449
S         4.17932560848810    3.02108695085581    4.85188282226007
C         4.88461593254707    4.04082839485987    6.21645349820068
C         3.77764110309701    4.92479677510307    6.77552686007472
H         2.95261533637795    4.31476290741593    7.13558785868557
H         3.40017397891671    5.58388797148699    5.99670154099201
H         4.15686355679932    5.52821021658769    7.59841609610977
C         6.05812750342670    4.86821938743787    5.70929538921897
H         5.68698302596346    5.66883460219244    5.07204358636603
H         6.75358747585667    4.24898507775828    5.12830454548006
H         6.59270769354945    5.31630330446656    6.54652817923943
H         5.21534836048146    3.34026988156240    6.99242475681634
C         5.61765140063616   -0.46765113306338    2.35178832399118
C         5.81689599950433    0.69097182112533    1.57076051774939
C         4.69375121447524    1.53603880230621    1.75554889523167
H         6.61618619470251    0.83451199806531    0.85112947967143
C         3.81092750804231    0.89479287598061    2.65211491948106
C         4.38522583939667   -0.33507648728325    3.02780851634746
H         6.23366031733409   -1.35795439818934    2.32433644512887
H         2.82456529490066    1.24858856409531    2.92491127460413
H         3.89299795562752   -1.10228490581705    3.61233194609294
H         4.45996665064199    2.42786474229060    1.18748687660401

