89
CSD_code = GAWSIJ | q = 0 | S = 0 | Stoichiometry = C32H48N3O2PRuSi2 | MND = 5
Ru        8.53482880235589    4.41068491212613    5.36977930315189
P         7.13294795336779    2.54012413247391    5.77122763934852
Si       10.64552278119586    5.39725975638832    4.92769795386246
Si        7.12093818584238    5.79305153305242    4.07499510154300
O         8.94513364748641    3.53416206378753    3.37932515305895
O         8.00948096394026    5.92521073556387    7.89918228582306
N         8.42859192556199    1.45174093387218    5.85626438030175
N         6.04775978852166    1.63541589318632    4.86008624175823
N         6.41345668996087    2.38712435812012    7.32165748184209
C         8.22239178554789    5.31269745293646    6.93497201000192
C         9.77138253855968    1.98968988950516    6.03299837691368
H         9.73899295647641    3.07880527192597    6.27546521488134
H        10.37110989605834    1.83660171455391    5.11994708205391
C        10.37681881958941    1.16518148443355    7.16493566195688
H        10.04258071900941    1.53723790379760    8.13446557961594
H        11.46527880695294    1.16715219741897    7.14383925527101
C         9.78140484288207   -0.21583167766077    6.88797256686071
H         9.76287182871954   -0.84911886591254    7.77296125351816
H        10.36599105349145   -0.71742112318062    6.11551292584131
C         8.37043338432624    0.08536846059085    6.36628455308993
H         8.08416846614706   -0.60689681230022    5.56759769811618
H         7.62460442428985    0.00722976024140    7.16313203555515
C         5.22373474787118    0.55448296288219    5.37905184147422
H         5.31888782497187    0.50011131979645    6.46286114136289
H         5.56893654585988   -0.39580863691315    4.95402479191675
C         3.77976555205003    0.84214624210679    4.91857322271174
H         3.38647545690083   -0.00728282664507    4.36109652008297
H         3.11765700160253    1.02100154088149    5.76481405794249
C         3.89157016637151    2.08083852016646    4.02002550841497
H         3.60944984680519    2.98039392579496    4.56819393928180
H         3.26773817697581    2.01123001945748    3.13164653960601
C         5.37995991169934    2.13438408623036    3.67511981133866
H         5.59103706345080    1.46673860043585    2.82888009781013
H         5.72464928601801    3.13510603883977    3.42250603466502
C         5.23401467106595    3.23691128817472    7.50455445732831
H         4.39177240742400    2.82999750997992    6.94500467375259
H         5.42791591681838    4.26572608688820    7.16660020999411
C         5.02453159234722    3.22128034009030    9.01051486750846
H         4.61167125908875    2.26011566586520    9.32178613103152
H         4.36708320334206    4.01875868551125    9.34937598183550
C         6.45688853369520    3.37695829363881    9.51362800795058
H         6.74198779890276    4.42873303225389    9.49362202163910
H         6.59493591694983    2.99712319507017   10.52437914862884
C         7.28244426064829    2.59212161901849    8.48715623199373
H         7.57214811912917    1.61217893325385    8.88184004863236
H         8.19638951152702    3.14613194335348    8.22897606942564
C        11.92892328468879    5.25904191809546    6.37606470930100
H        12.93222273918895    5.48988365846923    6.03199148262515
H        11.95446842456053    4.27205456995523    6.83182372788739
H        11.67969590622866    5.97288917257363    7.15419995309095
C        11.18344566331782    6.99696374087636    3.99475257121302
H        12.26456061449544    7.03930199856233    3.90279116179878
H        10.85911556692752    7.88027571564127    4.53256494481552
H        10.76441078979802    7.04176759240201    2.99460077257153
C        11.24769170457466    4.04352961243428    3.65394851927803
C        12.55636287530307    3.81249941118718    3.25862629256744
H        13.35680518936546    4.33490581171581    3.76028348765618
C        12.84423266327315    2.93988089800305    2.22319835372671
H        13.87067076990457    2.76988383252736    1.93105236893730
C        11.82797389026543    2.29599937283335    1.53562105855444
H        12.07758518911233    1.64539610846482    0.71258592905396
C        10.50488803219297    2.48866730443885    1.90407555730174
C        10.25995800052093    3.33981522397317    2.97806851036747
C         9.29371431393163    1.85334662852382    1.24393861358348
C         8.77271805290058    0.72470381967464    2.15760594053133
H         8.48310949608958    1.10366289842512    3.13698224110933
H         9.54509338035056   -0.03096808056287    2.29372174168533
H         7.90029716503311    0.25516919249530    1.70630532157657
C         9.61770896189411    1.26733427275919   -0.12846908879644
H         8.72832362615609    0.82089238215332   -0.56686522705288
H        10.36470166870887    0.48242950627727   -0.03535119178473
H         9.99488299361073    2.03686101595355   -0.79868719903284
C         8.08910349988354    3.74194464899849    2.31355296474266
C         8.23339542277555    2.94028796045619    1.18284349675114
C         7.38407169844295    3.18390310238914    0.11461639164992
H         7.45745452683084    2.59729599433288   -0.78719698125574
C         6.42889829320916    4.18430107165341    0.19602294196845
H         5.77403470837012    4.36047513249345   -0.64497696506470
C         6.30923436334431    4.95619938029705    1.33814516162486
H         5.56409683437078    5.73530729103197    1.38547746058538
C         7.14494359096962    4.75464957580786    2.42700112892367
C         7.51359765806202    7.58878243815918    3.48335300099272
H         6.71463931588122    7.96478028917435    2.85293400782056
H         8.43729809929043    7.63636776566205    2.91977372010866
H         7.60964285667284    8.25296608499667    4.33403135710681
C         5.24702269956268    5.88841547256228    4.57009647112492
H         5.12008111054253    6.59094399519006    5.38646129459650
H         4.85781208220567    4.92910236644770    4.89554814284019
H         4.63787724539434    6.23244149147189    3.74045474223040

