49
CSD_code = GAWSON | q = 0 | S = 0 | Stoichiometry = C18H26O2PtS2 | MND = 4
Pt       16.67575061443851    3.46255899982702   17.73946931912598
S        15.34964314498611    4.40786582412021   16.03785653391061
S        14.61806551077404    2.86161485440948   18.71862898061611
O        14.30540026492365    3.51619129489684   15.53695008471239
O        13.68617414801862    3.98304519007403   18.81930785828208
C        17.75594235506954    2.62681116240501   19.23621141054415
C        17.91727030922381    3.30698805075467   20.44882247290137
C        18.51375727829300    2.66892931372032   21.52963994969091
H        18.63387329203877    3.20596242402780   22.46083317814057
C        18.95068537644302    1.36091384835666   21.43090523755174
H        19.40992169551552    0.87692557089721   22.28067950979877
C        18.79807349428343    0.67944418346449   20.23704683985189
H        19.13856074701610   -0.34251509098701   20.14892108041491
C        18.20858585695100    1.31036165045904   19.15294313553731
H        18.10624273705258    0.76361002872325   18.22329130604545
C        17.45408493850568    4.73137130483572   20.59910587209504
H        16.81147331284991    5.01425459050030   19.75872036866974
H        18.31372477264678    5.39978734095062   20.61855321213849
H        16.90426549071720    4.86716293345575   21.52905558334176
C        18.40734490203764    4.03104428621338   16.85371544717829
C        18.92740829251191    3.28936950158549   15.78676530367488
C        20.01993586366607    3.76868179633311   15.07419817593193
H        20.41300642660058    3.18533677254836   14.25252390950724
C        20.60623586621441    4.97788065879590   15.39913887607707
H        21.45347956421142    5.33891433322401   14.83433724538384
C        20.10217835524702    5.71851339174618   16.45293349284550
H        20.55513577884854    6.66363455219313   16.71690289163319
C        19.01541181902081    5.24533057715866   17.17118296007315
H        18.64056898524820    5.83499944469608   17.99903543797203
C        18.31832902016662    1.96848315065266   15.39915267077611
H        18.98155957005608    1.15520669611483   15.69042555502031
H        18.16931832418528    1.90860974229179   14.32218688371913
H        17.35557445615379    1.83065672906283   15.90261921088186
C        14.53816636557853    5.95097833010195   16.56171072472700
H        13.90335919372267    6.31418653963151   15.76239423789332
H        15.31476387127425    6.66618877066080   16.80909996883632
H        13.94044058919750    5.71459058687087   17.43765655854467
C        16.18125864704353    5.09792606208078   14.55977448314304
H        15.44041705371918    5.55828778533337   13.91694368018995
H        16.66836553250769    4.27990308716309   14.04149756339517
H        16.92360369332146    5.81337865081886   14.89382262849899
C        14.64077090081385    2.07045547675464   20.36966585046950
H        13.62726647412504    1.81629643379116   20.65646056225409
H        15.06071133881767    2.78132753545376   21.07199334686064
H        15.27443650361794    1.19302518305941   20.31477820243734
C        13.74961402222808    1.51464257768435   17.85374090072790
H        12.78911143726763    1.34575492661668   18.32566931501240
H        14.37635884555451    0.63112820850110   17.89987642122327
H        13.61097296728885    1.83408473801599   16.82465556174726

