66
CSD_code = GAWZUB | q = 0 | S = 0 | Stoichiometry = C33H25AuN3O3P | MND = 2
Au        7.11849842012778    7.54033396928943   13.31528460908690
P         8.94910587672724    7.53541687485498   14.63955376497207
O        -1.06091101689663    9.28032691819879    8.48195110939312
O        -6.93965714234120   11.12410282143908    5.50405932191577
O        -7.42728464794572    9.26160087011611    4.54732049601679
N        -0.10535444501506    7.20662055250622    8.34781877228805
H        -0.21611982552735    6.28287467744242    7.95276099650585
N        -2.06505374382373    7.61437539525670    7.26390623347747
H        -1.97184017846574    6.64910109094324    6.97819582624011
N        -6.70794749305312    9.96128752317673    5.23560879457119
C         5.53502805526903    7.51478365829982   12.17746547650485
C         4.54123425591474    7.48319690108478   11.48713604228536
C         3.37403166056045    7.43767523656475   10.68882804014801
C         2.55569063868811    8.56028684804792   10.54890489903974
H         2.82942508498753    9.47624762343980   11.05202389304865
C         1.40792294257439    8.51635223745128    9.78410182535129
H         0.78461186152715    9.38869717468773    9.68611192648468
C         1.05234636900151    7.33728269598432    9.13807613517893
C         1.86540691042534    6.21279165250955    9.26633325445715
H         1.59283660086191    5.29375591996174    8.76213257688870
C         3.01090372723461    6.26020659903566   10.03067106702275
H         3.63590810947857    5.38409210619210   10.12769786296226
C        -1.05952075967918    8.14150498913029    8.08036133530487
C        -3.19766597826529    8.24118946324596    6.78520430832948
C        -3.51065690851634    9.57549814098775    7.06717102820615
H        -2.84481196090542   10.15391425542021    7.68441381262225
C        -4.65978811448919   10.13555080811282    6.55784375384966
H        -4.91409375009382   11.16306597314379    6.76738638631453
C        -5.51385327682931    9.37716745240724    5.76121992169506
C        -5.21308792634860    8.04836764192386    5.47196066536112
H        -5.88809458470116    7.47862565912097    4.85214171746394
C        -4.06556951458263    7.48916103343626    5.98036470226994
H        -3.82841598134915    6.45818917433162    5.75862095764308
C         8.73751448285668    8.27153000927423   16.28586645333106
C         7.57701939861792    7.91734095484855   16.97111154581767
H         6.87597543564749    7.23409685178589   16.50685522601843
C         7.32870043052830    8.43606377044695   18.22713008050203
H         6.43123185511406    8.15690011455719   18.75888704134059
C         8.23000936376493    9.32151888979320   18.79827282411776
H         8.03507370846545    9.73156568984667   19.77795696882308
C         9.37680219046708    9.68658376843104   18.11239478527711
H        10.07458674013188   10.38096258858839   18.55705208914327
C         9.63537658580319    9.16620159507823   16.85635351321293
H        10.53023910009700    9.45299190898235   16.32149009131804
C        10.40145184045123    8.40177762632971   13.97871124175234
C        11.70543981327553    7.94502516871541   14.13716869163103
H        11.89581796055898    7.02589198508361   14.67432989381702
C        12.75385848935647    8.67310836605565   13.60395831743925
H        13.76731377111950    8.31993113941154   13.72652020181742
C        12.50839103754967    9.85062158344513   12.91579063737526
H        13.33181752816589   10.41381934011844   12.50261528693438
C        11.20898250188359   10.30425356474897   12.75192214537456
H        11.01745991901554   11.21883689512728   12.21074139553935
C        10.15613276644192    9.57916280939228   13.27707500603587
H         9.13448256229328    9.91474751434800   13.14656444650633
C         9.59346283066770    5.87737645610331   15.00413888398986
C         9.69802565661571    5.01313540944784   13.91638534026864
H         9.40593879027139    5.36278829848799   12.93341967983160
C        10.16546999528957    3.72591770811441   14.09633636654379
H        10.24886371857089    3.05859475590745   13.25142488862018
C        10.51802843298666    3.29142811351544   15.36492963264246
H        10.87792276377762    2.28355606197714   15.50848703936336
C        10.40358450504965    4.14511265107329   16.44977042684035
H        10.67470009548220    3.80287200845816   17.43781002970451
C         9.94176791640746    5.43819005262679   16.27599438488597
H         9.85223454873523    6.10355241214143   17.12370393128461

