47
CSD_code = GAWZOT | q = 0 | S = 0 | Stoichiometry = C23H19Cl2NOZr | MND = 9
Zr        4.38496362159075    6.26717422865016    4.17878627784775
Cl        5.40378130846026    7.48821724075930    2.44858497630490
Cl        6.11182986816061    4.65627754566739    4.18851659206643
C         3.70775161821745    6.78594216432883    6.55180498390850
C         5.06133961772123    6.37778130345736    6.55312624020951
C         5.81315330073082    7.36332725385262    5.87420510780097
C         4.92947598067981    8.37807553649385    5.45802119710300
C         3.62977320871488    8.02643907377635    5.88094254543720
O         3.49415417021622    5.06179519669347    3.02472336445558
N         2.48536026207990    7.39501939354018    3.33427899373949
C         2.30781390243312    8.65568671100212    2.95184915709144
C         1.26692780098560    9.04352229169752    2.12374582757406
C         0.37381564978643    8.07764040204959    1.68425556042959
C         0.56798590135573    6.75865787315156    2.06301416592140
C         1.64921826267663    6.45544580017735    2.88016407955317
C         2.12513091148938    5.04652348420690    3.25063002883481
C         1.88480163036309    4.77145905501551    4.73889137442210
C         2.79765647915327    3.93831357758347    5.39285145035194
C         2.58596043975074    3.58495732563670    6.71675857745549
C         1.47939760831759    4.06823790420864    7.39846551791403
C         0.58565674141162    4.91187658867903    6.75855314549136
C         0.78469713036034    5.26561236935319    5.43298364766446
C         1.43924969645212    3.98203103275948    2.39758887990977
C         2.10930241192959    3.49621827883008    1.28344823095911
C         1.51662482659268    2.54283964303152    0.47511047620988
C         0.24939114034286    2.07125561094204    0.77204805788070
C        -0.42060555552922    2.55238537734019    1.88441787784766
C         0.17004190751552    3.50390937910722    2.69781782515751
H         2.91131176090548    6.33922726434472    7.13266040696920
H         5.46957983117910    5.51911506041103    7.07385791762241
H         6.89114493307975    7.37066869634958    5.75919029491638
H         5.22083126842583    9.30942177227098    4.98805611451471
H         2.75117474525053    8.65855429921191    5.84048791089259
H         3.03768027013435    9.36984305314987    3.31620000361507
H         1.16391464223599   10.07412098534408    1.82490754530741
H        -0.45145294129232    8.34251747263644    1.04038042233985
H        -0.08821757234236    5.97468315131357    1.71847702525217
H         3.63720996938913    3.52172600689892    4.83634220644167
H         3.28249527778925    2.92531978254687    7.21189004278114
H         1.31297071622340    3.78910803175595    8.42786089735421
H        -0.27274024656340    5.29412003685010    7.29074327676854
H         0.07887677237647    5.91958539845454    4.93768058500807
H         3.10100628345223    3.87105029644883    1.07426780948516
H         2.04635390808290    2.16787960442822   -0.38748443312553
H        -0.21480613999829    1.32731797839477    0.14199651158781
H        -1.40733155842148    2.18387260437526    2.12341215539469
H        -0.35675176187048    3.86554686282565    3.56878914733161

