55
CSD_code = GAXDER | q = 0 | S = 0 | Stoichiometry = C17H30CuIN6 | MND = 3
Cu        0.35592477516302    4.02155171691736   11.50823946101968
N         2.10809781181913    2.42481046679513   13.61897171726292
I        -1.49388473376887    2.35465929489079   11.61399687057477
C         1.31531234720152    1.63079117346119   14.53504329840240
H         0.46683035738472    1.19125152521634   14.00360037526438
H         0.93102770781084    2.25144067083372   15.33872092925722
H         1.91835410820800    0.82286009978546   14.95531747096792
N         2.18658171528259    4.34576678829743   14.91243552540615
C         2.39713038634421    1.76243172971060   12.36858365857368
H         1.48800614435809    1.52615270873376   11.80932822060013
H         2.92167328871645    0.83035157961298   12.58610683429867
H         3.03019123630448    2.40133741649336   11.75692092419944
C         3.01279385184542    3.77571350277397   15.94968886981113
H         3.44622186271316    2.83958361495043   15.60947030374092
H         2.43095742592170    3.59424886958629   16.85772144310939
H         3.82396216439652    4.47004484638777   16.19539157510672
N         1.99069255116871    4.48709767102531   12.56423603529009
C         1.76831167296146    5.70334214771762   15.15241911106067
H         1.00093961140746    5.98394465811219   14.43413659563074
H         2.59692735216121    6.41758693043265   15.07876484647373
H         1.34274203406164    5.76216421493239   16.15679112819264
C         2.09733785076865    3.78578986455755   13.66265187786078
C         2.64450783664162    5.69865057881145   12.39029414294283
N        -1.33584939582459    6.84546862848542    9.27119802172572
C        -0.45893973311643    5.79671104519884    9.46008742797977
C         3.98987020233555    5.78505462082246   12.76724228869765
H         4.44889033333444    4.92454976350756   13.23678512811482
N         0.33407911538211    5.70067743159204   10.47369782690170
C         4.72912219294877    6.92544931114202   12.53426918820460
H         5.76585240468245    6.96392136242146   12.83667584591536
C         4.14200745579312    8.01120272036619   11.90818568472310
H         4.71234982581318    8.90723287453181   11.71534354882757
N        -0.35638018986646    4.89181479172832    8.43399325593061
C         2.81353385974206    7.93627249113173   11.52767393309213
H         2.35209045487158    8.78499948409518   11.04129088466246
C         2.04865017682707    6.80543081237428   11.76370188933678
C         0.59227110447015    6.80454135601740   11.36549916896415
H        -0.02520678328514    6.71184609392686   12.27427146814786
H         0.34457276895716    7.76161984935370   10.88877551864598
C        -2.26940551587922    7.22325385137958   10.30558974695368
H        -2.18958670744211    8.28990706988653   10.53718226966363
H        -2.08323078815948    6.64639657020240   11.20707522156460
H        -3.29607572185799    7.01824114347971    9.97996639012127
C        -1.65037953641042    7.34538485253146    7.95618296790039
H        -0.90920439831514    6.98918106804294    7.24576512991556
H        -1.62078644352511    8.43907713563709    7.98179362343739
H        -2.64820149733284    7.04346628614973    7.61712324067469
C         0.80611902405320    4.03643535756166    8.38986255931154
H         0.94364302900831    3.69591185757354    7.36267244927342
H         0.70122409209838    3.15972199340972    9.03913415896658
H         1.67915408705262    4.60183319558767    8.70845209683722
C        -1.55477112937820    4.25934768484878    7.91781446092029
H        -1.49120119630703    4.17528908172966    6.83093217374862
H        -2.43648406901588    4.83409208481295    8.18249845878576
H        -1.66796638052009    3.25719606043136    8.34243275701359

