64
CSD_code = GAXGOB | q = 0 | S = 0 | Stoichiometry = C24H34Cl2IrP3 | MND = 6
Ir        4.22776230915160    0.73720401572273    3.69943802915347
Cl        5.66235251396894    0.54054128370279    5.56650705102450
Cl        2.83517519342361   -1.14964274858324    4.32624613323543
P         2.96898717821010    1.02270373261668    1.77742898138034
P         5.77560986773746   -0.83483471554706    2.96137265880137
P         2.70532879427004    1.86722091621299    5.06392290955973
C         2.05149366476194    2.59920722547573    1.68854869814866
C         2.78314515771081    3.76325940493645    1.90598279486389
C         2.17372491732981    5.00097424849897    1.83408927884143
C         0.81909978916290    5.08954790903912    1.55654115932632
C         0.08203014389726    3.93646824422216    1.34867356615478
C         0.69283743032630    2.69480495357503    1.41053617512106
C         3.90422179274272    1.16812336188421    0.20336901803851
C         1.74504925295131   -0.25214637738184    1.32624261629211
C         5.41407417512704   -1.76288275436493    1.43275886971203
C         4.36099149358375   -2.67387022831292    1.46891425453006
C         4.02575797137931   -3.40333945873135    0.34312595290426
C         4.73585033243529   -3.22834693381319   -0.83401567411287
C         5.77716000207088   -2.31689035171429   -0.88040216001315
C         6.11351611980048   -1.58311615487217    0.24479521538504
C         7.48404796133524   -0.23333924800062    2.71786771632825
C         6.06385768967400   -2.23920192282404    4.09573735583470
C         2.82614075638249    3.67904076830657    5.19381936861880
C         4.08429119727203    4.18422922287018    5.51001494333499
C         4.27943843764139    5.54552939647856    5.63733599902508
C         3.21914522678331    6.41663013084364    5.44007450674979
C         1.96926439670633    5.91971616586920    5.11398205326776
C         1.77008272728498    4.55538604522759    4.98854281166198
C         0.92370361665903    1.54805186118019    4.79782769595764
C         2.84337249098038    1.39344146828950    6.82213289830186
H         3.83363931911502    3.68223881050801    2.14706557440488
H         0.33680456096333    6.05447768821955    1.50711042096780
H        -0.97571773032545    4.00038287395051    1.13655115900227
H         0.10146325644716    1.80569408400258    1.24603046130880
H         3.80285448162393   -2.79872183872950    2.38628208231904
H         3.20974839366371   -4.11050962842924    0.38285250490081
H         4.47740512567688   -3.80012076166538   -1.71318038577664
H         6.33093690017565   -2.17557253691883   -1.79756644607268
H         6.92409380917183   -0.87133547825902    0.19471024823014
H         4.90610073373559    3.49352440426236    5.64378282551755
H         5.25719930807604    5.93081486901366    5.88687175733883
H         3.36867941389616    7.48221015162770    5.53652810770107
H         1.14276851352275    6.59737109089488    4.95378798481826
H         0.79092562883532    4.18474722353949    4.72481272779072
H         7.81291225862763    0.17564061317017    3.67244627218336
H         8.13773723908020   -1.05177518246077    2.41762066853755
H         7.50237551531500    0.56344761397930    1.97736821887130
H         6.63620931764067   -3.00835347856141    3.57542267236588
H         5.10959621377520   -2.64446056540684    4.42639484258327
H         6.60936358124795   -1.87709941019795    4.96528405952801
H         0.34449055717001    2.01055123697658    5.59670656472415
H         2.07729038397070    1.91190458637322    7.40037287396986
H         2.70510276955463    0.31451213468637    6.89155871689135
H         3.83416003556825    1.64438606541490    7.19599856576241
H         3.22243912257404    1.42552649706651   -0.60708564838847
H         2.28492786038089   -1.19256687129108    1.21974844093723
H         4.39732341283122    0.22281710991970   -0.01556530875031
H         4.65584404969972    1.94720948407009    0.31018713518039
H         1.25211480415707   -0.00411509195315    0.38660220986137
H         1.02102001626651   -0.36888936062879    2.13015429975220
H         0.78246189549766    0.46817991009485    4.82763291051030
H         0.59926856820577    1.92711450440818    3.83082967067666
H         2.75220931615738    5.89652195804123    2.00482594406190
H         5.08753876695685    1.93937783346220    3.30534699088617

