57
CSD_code = GAXHUI | q = 0 | S = 0 | Stoichiometry = C24H24N4O4Ti | MND = 6
Ti       -0.90973014470733    1.94653058671303    3.01278904078910
O        -2.03912978482738    0.61458840797909    2.42464729053113
O         0.45660639185216    3.18236497647199    3.18844271823052
N        -0.42515382122058    2.22678960178168    1.08350189256311
N         0.61256244612086    3.11553003110531    0.92444257490604
C        -2.62019073257941    0.42789998709729    1.29183001439046
C        -3.82823348523940   -0.47960938538184    1.30840380222689
C        -2.19031250039760    0.98914714532164    0.10959138376472
C        -1.08630091147197    1.87122246075127    0.01368536712718
C        -0.68098824895371    2.41562305873551   -1.32528224698497
C         1.00934618126549    3.57029988438181    2.07638639449439
C         2.10434025205919    4.55157621703873    2.12379797807319
C         2.51596552194607    5.04934184296215    3.35899973506216
C         3.54452932327694    5.96956313513348    3.42901562046127
C         4.17109320927146    6.39935756998278    2.27019337663038
C         3.76563030746704    5.90666970974955    1.03873733732916
C         2.73700923849579    4.98775981698196    0.96095162116735
H        -4.18878277591659   -0.68768371054626    0.30633569268650
H        -4.62003538738320   -0.00166433323913    1.88543789992702
H        -3.57174497843391   -1.41228959682354    1.80903701145792
H        -2.72024868739103    0.75352384263953   -0.79998575025965
H         0.38933293595665    2.27241650410594   -1.46104164726081
H        -0.86570346581403    3.48895505972114   -1.34506036582232
H        -1.22826140672092    1.93657935537460   -2.13110012136945
H         2.01312767778278    4.70025306923911    4.25038452134375
H         3.86016361929725    6.35425997568850    4.38798416357121
H         4.97513794205656    7.11872817387676    2.32597218454443
H         4.25629367159730    6.24412954326315    0.13732697188329
H         2.40592885543729    4.59379610659543    0.01351653837644
O         0.21972818764979    0.61462397988952    3.60103486655827
O        -2.27631839871138    3.18224505300204    2.83712007089868
N        -1.39410296406149    2.22690805253519    4.94200194618201
C         0.80086000886190    0.42802853496949    4.73382769675046
C        -2.82880263351350    3.57028961702865    3.94925471139082
N        -2.43183064742664    3.11558827466061    5.10117321284125
C        -0.73268535100015    1.87178304080681    6.01181128497494
C         2.00874058759823   -0.47969947877195    4.71730570812887
C         0.37125140663239    0.98963639567098    5.91600976805084
C        -3.92368303957886    4.55170574536433    3.90211088104017
C        -1.13827481044980    2.41652171431717    7.35053517728796
H         2.36909370350932   -0.68798654694405    5.71940033704592
H         2.80073662933895   -0.00183768031773    4.14046744209161
H         1.75214188001841   -1.41225473490105    4.21650027545603
H         0.90131635965303    0.75416407230796    6.82554870125596
C        -4.33518532299859    5.05004897920213    2.66710639880020
C        -4.55630933897090    4.98751189314264    5.06512459284616
H        -2.20643274956170    2.26226519281229    7.49125361671138
H        -0.96532434067809    3.49184115990488    7.36574225275828
H        -0.58294028993509    1.94605314327587    8.15583565439154
C        -5.36356968652282    5.97050133264740    2.59745279963830
H        -3.83239328450552    4.70123818207422    1.77558813195263
C        -5.58474297137188    5.90665634919337    4.98770096890145
H        -4.22534369508920    4.59303207253515    6.01238625957056
C        -5.99006654868096    6.39994803629877    3.75643964607002
H        -5.67910589524542    6.35566987532564    1.63864120402621
H        -6.07536071608432    6.24383462573509    5.88924109226599
H        -6.79394732170364    7.11952408152273    3.70094430226835

