78
CSD_code = GAXLUP | q = 0 | S = 0 | Stoichiometry = C37H32I2N4O2Zn | MND = 5
I        13.89374290007282   -3.19988518124872    7.25832973543031
I        10.23297767854742   -3.81295267307713    4.41104442821481
Zn       11.82801391032821   -2.54385607467585    5.94069319508728
N        12.93817582831108   -1.42653775815135    4.32736229037552
N        10.46141492747042   -2.37978030136815    7.72495872430822
N         6.23833936829290    6.17168531561311    4.31208089357434
N        11.06106274166049   -0.55466331176001    5.93659111067679
C         9.48415495224184    1.67197066764017    5.40864299805805
C        10.59889841724440    1.36676417233342    4.62307348848713
H        10.85873002425900    2.00264060648810    3.79363719971240
C         8.48426328357934    3.30418422740784    3.81813858320094
H         8.94475126742041    2.77768093469688    2.99555780109831
C        10.01546268099545   -0.28151712185314    6.71420080372384
O         7.31584532853908    9.63128757050667    0.09780221943695
O         1.72989641755631    7.18561845957311    7.39965128902379
C         8.64856639340707    2.83271474666850    5.12435920090561
C         9.78507255858933   -1.23391153902294    7.81176446004663
C        11.35655566712205    0.23968659155540    4.90989248850492
C         5.52107935708937    7.55058088749030    2.44083813187963
H         4.49629793249721    7.27438214815851    2.63856449092917
C         7.69600308083703    4.39751902674125    3.54827896778621
H         7.56648522719942    4.73129100346926    2.52974718374782
C         6.53931900270950    7.02964952853657    3.23962113577264
C         5.11367825565037    6.45335101719857    5.10730086723882
C         9.19859610779976    0.81468363710880    6.47477087619185
H         8.32069905742172    0.98191230420249    7.07599151515335
C         2.85054994774240    7.02359949112999    6.65059445201880
C        12.51068051092343   -0.18383493634121    4.10097077822656
C         7.03239160036022    5.07400656503037    4.57939742990745
C         7.98444093621104    3.51140949993190    6.15083917359029
H         8.12221248989519    3.20132927398991    7.17608900609632
C        13.13105904921181    0.63427373235206    3.15961570958777
H        12.80080748370064    1.64848845602316    3.00365978699623
C         7.85378169732878    7.39432498039964    2.97107267885319
H         8.65079073602805    7.00587212249901    3.58825154506863
C         4.79488773790245    7.76383582792666    5.44317476399284
H         5.42900524243125    8.56926444154784    5.10332201407205
C         4.28269212922306    5.42428283600149    5.55257400874842
H         4.51038243274314    4.40244261034440    5.28776247217502
C         7.13880039054675    8.77547333267182    1.13686598948046
C        13.95532298375111   -1.90609794339401    3.63602337391483
H        14.25465225271960   -2.91955851894823    3.86745037131243
C         3.17399445308421    5.70570891136926    6.31688013734807
H         2.52551244501790    4.91669116574834    6.66287013709783
C         7.19564006120151    4.60629199487771    5.88932950661018
H         6.70692178776896    5.12556991110608    6.69995460495062
C         5.81717530343973    8.41196632584313    1.40962779035578
H         5.03662841291228    8.81967938029802    0.78747232211171
C         1.31782334911946    8.49271158984113    7.74888312643433
H         1.15258621177789    9.09065547950113    6.84172648982074
H         2.09160466515518    8.98249472624019    8.35679697020582
C         8.94144131626290   -0.97048789664016    8.88835868083640
H         8.42059711881415   -0.02992982240093    8.96593447548574
C         3.67439900137127    8.05123977069654    6.20194493687825
H         3.45970277876502    9.08079182865467    6.44021665888922
C         9.49412277990648   -3.12158279252727    9.76369870793229
H         9.40871563496137   -3.89513620939092   10.50924714031966
C        10.32221524323858   -3.29503557036876    8.66608329101692
H        10.89964913018965   -4.20108297656019    8.54047285890908
C         8.52074274205357   11.00592111610662   -1.41104906885941
H         8.06687506493798   10.49778934363765   -2.25731336383891
H         9.50981381782617   11.35587806017496   -1.69227844157418
H         7.90135669005747   11.85851929713671   -1.14682387199205
C        14.61772672848955   -1.16824514270378    2.66790523802464
H        15.44069135047192   -1.59984631719462    2.12200300972788
C         8.79570558850296   -1.93047630505260    9.87507490584395
H         8.14888167868336   -1.74719689590932   10.72017019883354
C         0.02547116079468    8.37208827489381    8.54089122675150
H        -0.73550438996640    7.88632673058926    7.93638782812611
H        -0.32426364139078    9.35863678200544    8.83103337094620
H         0.19168619508100    7.77467065747018    9.43301366092699
C         8.62486662138106   10.05468749549529   -0.22950286090092
H         9.08171179963970   10.56597577975723    0.62959640823619
H         9.24667117508583    9.18781686876678   -0.49401383783067
C         8.15603429422151    8.25197351346547    1.92867117289432
H         9.18800706241445    8.51132532915564    1.75292333906947
C        14.19763830164449    0.13098488844984    2.43452642553593
H        14.69371807944196    0.74721405203192    1.69942919218096

