39
CSD_code = GAXPOK | q = 1 | S = 0 | Stoichiometry = C12H23IP2Rh(1+) | MND = 8
Rh        1.83864684472940    4.34213890269546    6.51966578115211
I         3.23713552761574    4.53166781435544    8.76578926533011
C         2.43729528186422    4.29998453838460    4.35245181362391
C         1.29181230790786    5.12951227026700    4.51096338249953
C         1.67223298496886    6.25090275397175    5.31295855516156
C         3.01365177136893    6.07703908028476    5.68816204647516
C         3.48667599635489    4.85016821800939    5.11873570238814
C         1.81976070520823    2.22651938303050    6.76953821266301
C        -1.13563772678334    1.87623543949072    7.12699656719849
C        -1.44214349934227    3.36287689397190    6.99303205022753
P        -0.09969447011821    4.42907597403498    7.69509283807776
C        -0.16940070045045    3.98988751639205    9.46231855444521
C        -0.91255282580191    6.06130134345465    7.69827632716133
P         0.36723584348523    1.34290739535434    6.23301268856631
C         0.51688791005915   -0.43389342424080    6.56948918163758
C         0.05702316162176    1.51306115167312    4.45593525843079
H         2.51600950814822    3.44559731234412    3.69695392674902
H         0.37360205092806    5.05509466189346    3.94652304486412
H         1.07290479871774    7.12952049295866    5.49531990075213
H         3.61700561174903    6.78285907049787    6.23900600182893
H         4.51162508102950    4.51151010369114    5.13392249173361
H         1.97287760075399    1.93087839576420    7.81559732047122
H         2.66498236923258    1.82379376881484    6.19118747101119
H        -0.99273883288928    1.61027049841648    8.17905676936387
H        -1.96632202719215    1.27595423021301    6.73912280065664
H        -1.58480800132106    3.63445372424847    5.94331938782498
H        -2.36913992624517    3.59456801912670    7.52640101925114
H         0.37488461930147    3.07045497588684    9.66880465958461
H        -0.38186125347930   -0.95903769546637    6.25039878737122
H         1.37640187011498   -0.82926400247561    6.02860574322083
H         0.30572401208407    4.78892334254878   10.03024582963092
H        -1.21017788203644    3.89232635421139    9.77212526589801
H        -0.21967728034984    6.79442010215298    8.11345154038627
H        -1.18301731193839    6.35749704578165    6.68585310087032
H        -1.80644568150243    6.02498777635581    8.32088232659181
H         0.67058949744045   -0.59091995396877    7.63653214111992
H         0.89676405607990    1.08198986772376    3.91089372496147
H        -0.04300268611831    2.56339699247382    4.18827056124111
H        -0.85410930519599    0.97773966567697    4.19080795957811

