64
CSD_code = GAXRIJ | q = 0 | S = 0 | Stoichiometry = C29H29Cl2O2PRu | MND = 9
Ru        1.48175039510047   14.47355634208657    1.89683434767380
Cl        3.23931560015296   12.90500166645856    1.91532881306348
Cl        3.02531114085277   16.24246458065658    1.62690903390472
P         1.55306599936966   14.64841758369593   -0.37716669225068
O         7.70632421367170   14.91050502994834   -3.17106613578068
H         8.44621500171757   15.02302020058484   -3.78788666360183
O         6.51534485012830   15.52118093213882   -4.95261033017103
C         0.12662098686247   15.79387035197571    3.24061519101428
C        -0.67909392671088   15.18176455094413    2.27032354936619
H        -1.36403011445815   15.78009529959855    1.68248475856619
C        -0.65357813195533   13.77341336597575    2.08596179605429
H        -1.32075273866109   13.31741575948638    1.36025491303739
C         0.13172375252693   12.95074953296588    2.91383160106258
C         0.91418226007806   13.57571099484929    3.92617360314790
H         1.48840225935796   12.95094709714916    4.60353061366029
C         0.92493329558664   14.96126289856535    4.07829350822831
H         1.50324976496250   15.41377932053032    4.87688767109479
C         0.04781074061530   17.27463422312376    3.52290223002609
H         0.92806791979501   17.55289057609091    4.11294262938624
C        -1.20725898305937   17.54484834563791    4.36143572983370
H        -2.10345443874048   17.28469405264336    3.80099517577034
H        -1.25775302095670   18.59892845934045    4.62228438266767
H        -1.19343191185550   16.96166146555910    5.28054026364094
C         0.05356429234117   18.12360065402995    2.25301366165031
H         0.92236676504790   17.87468419081258    1.64716336390482
H         0.10845654448451   19.17665481822961    2.51712041545785
H        -0.84506565372363   17.96952221276564    1.65956071642153
C         0.10793519436737   11.45633621372039    2.80535625496273
H        -0.46816814340180   11.13652720516384    1.93965114956106
H        -0.33136133761665   11.02219369569155    3.70443333646079
H         1.12569743245433   11.07617891527319    2.70950913826264
C         0.81210910347720   13.22981409484111   -1.25194570843681
C         1.07129080616466   11.97410926675480   -0.70946261063305
H         1.67005642645483   11.90676497288668    0.19057922748529
C         0.58451385197904   10.83567850697581   -1.32534160186795
H         0.78922455012775    9.86395160751097   -0.90069763083556
C        -0.16195383888481   10.94313064431788   -2.48768068116208
H        -0.54738945754315   10.05619348328939   -2.96865878204704
C        -0.40877115974945   12.19019751946506   -3.03844548514791
H        -0.98257942241273   12.27412675323560   -3.94997026072042
C         0.07889702964638   13.33288578207834   -2.42935835737903
H        -0.11886503561249   14.30006931352460   -2.86880159072194
C         0.57860615438922   16.09082983424647   -0.89066382078914
C        -0.80903070119005   16.00724753616157   -0.97539737675683
H        -1.29839475126152   15.05568641387021   -0.81169150425600
C        -1.55556842667272   17.13143075868232   -1.27765684172161
H        -2.63160600014614   17.05977718835998   -1.35149005513914
C        -0.92498997198530   18.34866310816387   -1.48215659975735
H        -1.51042798688686   19.22540862517575   -1.71630559160429
C         0.45349679540828   18.44061462258788   -1.37815952514731
H         0.94374312719648   19.39110697318786   -1.52522057872177
C         1.20615762980304   17.31909243772515   -1.07977266306299
H         2.27967493788737   17.38647167284971   -0.97698434079484
C         3.08578330594536   14.82736282450405   -1.35114466767633
C         4.33436747929673   14.54880867184226   -0.80808872025849
H         4.41470086964123   14.25293423783794    0.22769740481577
C         5.46972696476125   14.66209808801373   -1.58921662112528
H         6.44127612113056   14.45537012220714   -1.16912607065804
C         5.36321603101060   15.04797864431524   -2.92216048117720
C         4.10815206660387   15.31367655872458   -3.46995546822040
H         4.04703550826046   15.60887150971659   -4.50681865476857
C         2.97711608722976   15.20107385047111   -2.69164760050534
H         2.00618979479624   15.41346358741476   -3.11629613629086
C         6.55165210280490   15.18950025334283   -3.79286863103064

