53
CSD_code = GAXSUT | q = 1 | S = 0 | Stoichiometry = C12H36CuP4(1+) | MND = 4
Cu        0.55413499659523    0.55412554804976    0.55416986071177
P        -0.40818227687212    0.76029261470349    2.65750865656818
P        -0.78604373769028   -0.78605564422842   -0.78603942850964
C         0.21095788350198    2.12317545072914    3.71661938896760
C        -0.30974565920490   -0.65318782558447    3.82227545263859
C        -2.20981341971949    1.10007845945858    2.68235465424418
C        -0.04916948876213   -1.41755237591349   -2.34200083336083
H         1.27857808983666    1.99120444379523    3.88503271554501
H        -0.31073658649687    2.13610630543822    4.67329989417119
H         0.05380622771584    3.07088623298136    3.20380513479081
H        -0.74995322115436   -1.53341484489102    3.35627951771462
H        -0.83905428746239   -0.42726817062717    4.74765312592665
H         0.73565781209212   -0.86238572258045    4.04387353668915
H        -2.73690925608471    0.26231089111635    2.22834707693989
H        -2.41250433675078    1.99699857280546    2.09909124077377
H        -2.56233994819877    1.24092693187692    3.70386378728454
H        -0.77139090935278   -2.01763686173531   -2.89508408845494
H         0.82183832070789   -2.02586790683176   -2.10309601784967
H         0.27133094146966   -0.57631025461439   -2.95446818904909
P         2.65748899582983   -0.40816335736701    0.76028605608494
P         0.76027541078812    2.65744200206783   -0.40816067742411
C        -2.34200411869052   -0.04917436202419   -1.41752920947261
C        -1.41754016231682   -2.34201298670483   -0.04915778954812
C         3.71660716587135    0.21091555183592    2.12318293728337
C         3.82229791274452   -0.30970837634032   -0.65315186550477
C         2.68237462082639   -2.20979526672696    1.10002607676794
C         2.12313155599689    3.71660771750526    0.21089317546306
C        -0.65312529897876    3.82228280203648   -0.30975357441578
C         1.10003859076879    2.68238991516232   -2.20977500969045
H        -2.89509296117073   -0.77139175541671   -2.01761336535723
H        -2.10309544985647    0.82183264550474   -2.02584413584858
H        -2.95446803253000    0.27132849144470   -0.57628546473136
H        -2.01762976872594   -2.89509610010145   -0.77137502426156
H        -2.02585127310351   -2.10310465084082    0.82185217619346
H        -0.57629935627643   -2.95448316347629    0.27134057100406
H         3.88502497278437    1.27853580422955    1.99123488128661
H         4.67329028540897   -0.31078155203628    2.13612452440240
H         3.20377704551880    0.05374662606750    3.07087976429718
H         3.35631031485058   -0.74989794042473   -1.53338906089082
H         4.74768264244066   -0.83901705046866   -0.42724366359713
H         4.04389191032895    0.73569900803586   -0.86232449621752
H         2.22837286416251   -2.73686570487108    0.26224233148372
H         2.09910616804075   -2.41250650013391    1.99693533964158
H         3.70388327811365   -2.56233324809638    1.24087305146398
H         1.99116442421932    3.88501614725499    1.27850900046860
H         2.13609444802271    4.67330255711700   -0.31079496678304
H         3.07082316640188    3.20377352676179    0.05373461021872
H        -1.53334518859950    3.35628335979573   -0.74995386532823
H        -0.42723268108883    4.74768095389699   -0.83905767096210
H        -0.86231297615517    4.04387005777555    0.73564900114266
H         0.26226234288132    2.22838131112204   -2.73684336671737
H         1.99694829838272    2.09912129690639   -2.41246195629326
H         1.24088970893815    3.70389639656556   -2.56233381990817

