39
CSD_code = GAXSAZ | q = 0 | S = 0 | Stoichiometry = C17H16FeO5 | MND = 8
Fe        2.08020699849232    1.12283102705292    1.56987240050849
C         0.21058062801351    0.00702536326529    2.07813814722623
C        -0.15306600375899    1.21626179030619    1.45267315931136
C         0.24707524242206    2.28495613140167    2.29895060431393
C         0.81690251941793    1.72811031938084    3.46283499055617
C         0.83372091387444    0.32640877348668    3.31645466806022
C         3.69235086709909    2.17846630613482    2.21008433847184
C         4.39959502235831    1.51111867607221    3.37949063666806
C         5.48544678254872    0.56179129937141    2.96927623283471
C         6.21381293668724   -0.01250645377427    3.91535116690896
C         5.92446149465968    0.34484271592589    5.34397710791047
C         5.92477535732898    1.89511014921808    5.42459330933900
C         5.02320613233538    2.54604084859332    4.37499148451297
C         5.94544432759762    3.48406028994429    3.62334429633282
C         7.30682819027671    2.44241358478345    5.10531425493390
C         2.43124318338446    1.73502315174054   -0.02175922332725
C         3.08351373198696   -0.23452729965288    1.14374513978738
C         6.87717515700511   -0.30493814462320    6.33756842798045
O         7.22928366031448    3.31185349743043    4.05713266460397
O         5.66665144019896    4.27731489381482    2.78213199266267
O         8.33948530351670    2.21223857491679    5.64964624253932
O         2.69648746433694    2.07262903746587   -1.08241942066333
O         3.68840381157939   -1.13431908303270    0.77189777848827
H        -0.05128786599853   -0.98395054059986    1.74579057961885
H        -0.73675420399313    1.31352362701836    0.55216370747772
H         0.00762224331042    3.32452266157330    2.15068750662970
H         1.13615652901544    2.27743173152213    4.33353784299368
H         1.10986828581873   -0.38602840531776    4.07668455667172
H         3.22278073136232    3.10823938082565    2.54483997977797
H         4.42872962279890    2.45147482734108    1.45366851069972
H         3.66683929999985    0.95311052349831    3.98018610711835
H         5.65302640049289    0.39467536344856    1.91836960944150
H         7.02213460530614   -0.69319793650995    3.70485531673265
H         4.90070758922526    0.02540726343280    5.58607174643183
H         5.66839460164988    2.19786306192260    6.44388351242183
H         4.21238675166861    3.13322826884465    4.81216716929519
H         6.61806070127873   -0.02472563470752    7.35615758411120
H         7.90293796899364   -0.00247101666772    6.15029325357286
H         6.81031157739250   -1.38680862484782    6.25025261704302

