39
CSD_code = GAXSIH | q = 0 | S = 0 | Stoichiometry = C16H21BrZr | MND = 14
Zr        1.89439763188814    0.97526827481466   10.81772552280642
Br        2.70621411717836    0.09978109966814    8.52598782660295
C        -0.00349958807858   -1.81573978762989    9.28827193376992
C        -0.35771376324682   -0.58427710747621    9.68786299755754
C        -0.03758943015593   -0.12079945620101   11.06937178276089
C        -1.17291197619959    0.60495519040711   11.81599258634308
C        -1.00491407911665    0.37319284542680    8.71623623691402
C        -0.13623730128726   -2.34771137360170    7.89540062848613
C         0.52792954404735    2.98721536381408   10.22735036353554
C         1.62104737104850    3.04385615473965    9.34073971080087
C         2.78997271079100    3.26766216656075   10.09619574014119
C         2.41475276983856    3.39805315882216   11.44736403125236
C         1.02239127797107    3.19576878163090   11.54207660303242
C         3.03086579229089    0.95440933236271   13.09328869120599
C         2.34428967622197   -0.26889559564542   12.95254884529880
C         2.97615264264974   -1.00661549869738   11.92158759896783
C         4.05795857397638   -0.23999189408502   11.44410512748883
C         4.08553800627161    0.97401321767801   12.15445255761809
H         2.86144867837234    1.67872428960094   13.88053470699224
H         1.58085295868586   -0.64057961344899   13.62563299060308
H         2.75213702467428   -2.02794971298610   11.63443374167493
H         4.79288759472077   -0.56731342807275   10.71893477729198
H         4.86541613090202    1.72324211031839   12.08456652361697
H         1.56660861725654    3.01235797740890    8.25950893433875
H         3.78065425432919    3.43411210690409    9.68771138269518
H         3.06037158287479    3.72292032807905   12.25269905641447
H         0.41834938899136    3.35561096198773   12.42770207773033
H        -0.51224916604829    3.00634397959436    9.93230964191336
H        -1.49732624348245    1.52762272810421   11.33519601711319
H        -0.85694742035729    0.84633847427938   12.83638407263298
H        -2.05229016206134   -0.04442621584456   11.89443218932537
H         0.16670119951698   -1.03526851297138   11.65893136688364
H         0.46157435923343   -2.48522620718472   10.00505617112238
H         0.46585129417888   -1.75533111842624    7.20687226696570
H        -1.17023919900363   -2.31675612036234    7.55137869912629
H         0.20604908849911   -3.37687896098316    7.84815380607338
H        -1.69874119504779    1.04503859807374    9.21654438848441
H        -0.24410958824554    0.96439606199087    8.19650116446799
H        -1.56064317410979   -0.17762259874819    7.96175723975461

