66
CSD_code = GAXXIO | q = 1 | S = 0 | Stoichiometry = C18H40ClN4NiS2(1+) | MND = 5
Ni        1.65269625107242    9.90546367599206    7.81137909632447
Cl        1.71624138640714    8.22469738891476    6.47273505455910
S         5.84722185420867   10.72293914479331    4.11094996271691
S        -2.45458938360108    6.31741006627173    9.29135786098033
N         0.74038626220764    8.88340670224997    9.25153229907045
N        -0.27364816176646   11.09537096945611    7.29805263393907
N         2.55809097921536   11.12442393023244    6.52695750895134
N         3.53871275997720    9.76122906208959    9.15672337418066
C         0.07691898628526    9.94754635231668   10.04548668358041
C        -1.24396417087185   10.51560106686838    9.51810902172475
C        -1.04892142457589   11.58594366664579    8.44222910383095
C         0.29427773687921   12.21056858494430    6.52720960808786
C         1.48933688507999   11.73531373460044    5.70508299513555
C         3.14300336036841   12.16652435773983    7.40714867943805
C         4.45270053348207   11.83976913805492    8.13065402739111
C         4.24595899422384   11.02141906191650    9.40691221031402
C         2.94849970103257    9.23160689128292   10.39438367958567
C         1.80895027125418    8.26892134324239   10.07085625583704
C        -0.18597646356753    7.81230235393594    8.84053438963552
C        -0.95779147005091    7.11189033978851    9.96527982953253
C        -1.72340169573170    4.89322724475505    8.44443967498681
C        -1.14323832914192   10.30521935521686    6.41242788610562
C         3.54714491287256   10.52749158767620    5.61043173248105
C         4.30652857976612   11.50027640667305    4.70073532379024
C         5.18771712849218    9.55650950189488    2.89242423104658
C         4.47774997080383    8.76432997499455    8.61896087184419
H         0.78057221922014   10.78239806032228   10.13605755321717
H        -0.09678679357385    9.56116299743418   11.05758383295101
H        -1.90680540582542    9.72661219302935    9.17087774228693
H        -1.74627234234718   10.99705660505641   10.35946860919501
H        -2.03014400814995   11.95841420285285    8.11847668117069
H        -0.50934988880946   12.42336755483836    8.89503269134276
H         0.60161203709864   13.00680275343419    7.20851486464880
H        -0.45139655631386   12.64090744805431    5.84339015885550
H         1.15238338562976   10.98100568099700    4.99110098490841
H         1.89168677387171   12.58764426510415    5.14443816025921
H         2.39804990892821   12.41298362140050    8.17164129247629
H         3.30085848233035   13.07144991523094    6.80706935857974
H         5.16508972318108   11.35664783030538    7.46615787931780
H         4.90020068153443   12.78952507536344    8.43026636937691
H         5.21951103958567   10.83552415397742    9.88027478972939
H         3.65007019743606   11.62350557983674   10.09962533434128
H         2.57853986751464   10.05753091532528   11.00559470522270
H         3.69841457436584    8.69663867091433   10.99456432620581
H         2.20765525054078    7.42182165352933    9.50893813931898
H         1.38787796434102    7.89316641529004   11.01117920797997
H         0.39692330265775    7.06810700868866    8.29515685881194
H        -0.90074542032920    8.22512603492853    8.13172469106475
H        -1.33972822762636    7.81207686151558   10.70524290015105
H        -0.36444964142213    6.34669687369782   10.46348886621874
H        -1.11478295831395    5.22582507425756    7.60920598940101
H        -2.55389811721291    4.29777757242802    8.08026342522573
H        -1.13726644540665    4.31418734732604    9.15181088620481
H        -0.54436303952987    9.68518888726718    5.74687280376741
H        -1.78826624839188   10.95940198391632    5.81499282018536
H        -1.78725201626869    9.65200231285696    6.99324119243476
H         3.01957301656654    9.80186085568124    4.98903211353152
H         4.26923398179998    9.96441491332464    6.19798891682148
H         4.64370871649545   12.38813580535126    5.23163986665528
H         3.72376888178650   11.79798361115922    3.83035592498768
H         6.04760928616999    9.10000079551651    2.41364430882669
H         4.59975961530215   10.09670746526341    2.15626324446880
H         4.59383640647172    8.79370355409138    3.38670824243807
H         5.12806793574223    9.21441578120869    7.87515275803359
H         3.93460414700152    7.94863397572282    8.14396250955193
H         5.11469425962951    8.36058579095454    9.41410500476487

