60
CSD_code = GAXYAH | q = 1 | S = 0 | Stoichiometry = C16H36ClN4NiS2(1+) | MND = 6
Ni        5.10863884826399   10.13009801823602    3.81501148909608
Cl        6.62867911099060    9.43476745150611    2.63888924938010
S         3.64904053623383    8.54885303143246    2.68402714144618
S         7.60883604775907    5.31201883606573    5.60803405932978
N         4.43784976066075   11.60258610502186    2.15159899647159
N         6.55797851403714   11.60020384195275    4.63067466710319
N         5.86550411486632    9.05864980063542    5.82320267218150
N         3.54452007303450   10.94301248521765    4.76438908487715
C         5.44541190430996   12.59994357021620    1.74625378509613
C         6.16041061636334   13.33105590087453    2.88613500350261
C         7.18545599663850   12.49001796735723    3.64734689279894
C         7.55002270727739   10.84966257726782    5.40686376505304
C         6.84960288189390    9.96347062102095    6.44032380661860
C         4.78879069975754    8.73455900302073    6.77015824047327
C         3.76082382168595    9.84445811141986    6.99354314769290
C         2.87343918070987   10.13514044296199    5.78754615241734
C         2.56203555645094   11.44623554302376    3.79460775969360
C         3.23297097527504   12.25900486004585    2.68063867653185
C         4.13858136328959   10.76307869020361    0.98298307271068
C         3.19441897819178    9.59399102451607    1.24847552178934
C         4.51541218900563    7.19620328005625    1.85133281545716
C         6.50209073586864    7.81163045517679    5.35376654936168
C         7.01785931625275    6.83984742125927    6.41614471453121
C         9.20748858211027    5.86913780033349    4.95636370588833
H         6.06030537123566   12.19949723238975    5.29242261397844
H         3.93292465515024   11.75985982463861    5.24105769556232
H         4.97304344411882   13.34636613156070    1.09092867588623
H         6.20912395047380   12.08008661783921    1.16562501908987
H         6.69625917279243   14.16337230055116    2.42747306239347
H         5.44833826869002   13.76194825031554    3.59344759736650
H         7.75537906742838   11.87744852802665    2.94631065889694
H         7.88796077785240   13.16474138681343    4.15824438767855
H         8.23613202043575   11.52914974015484    5.93160164510359
H         8.13614796785303   10.24405604125389    4.71359974773545
H         7.60784537741184    9.40593171351722    6.99995157302964
H         6.33168865187279   10.61153887362138    7.15094776638608
H         5.21368089296432    8.46951635316793    7.74777277173890
H         4.25957685098940    7.86180169544491    6.38118716937418
H         3.11559614470344    9.51582988185324    7.80966982251253
H         4.24451982604313   10.76727816930965    7.32198372293731
H         2.54731204385406    9.19772485132858    5.32822393906002
H         1.97787933780098   10.66816173459249    6.13870457908634
H         1.82127067271897   12.08641892937509    4.29534284023205
H         2.02636944995059   10.58475049810603    3.39457287836722
H         2.50354742618116   12.44975426171603    1.88253799817971
H         3.52247668086787   13.22684439126893    3.09422387473655
H         5.08808897612470   10.36081160868714    0.62108440191103
H         3.68995104909756   11.36945422918442    0.18031739200456
H         3.18626376124122    8.94041588970279    0.37783671430787
H         2.17542093471376    9.93336570545407    1.42706906103022
H         5.41241905561778    7.56903007170748    1.36515489403549
H         3.83184312855662    6.74080148268530    1.14061170043545
H         4.78753403918731    6.47099382978832    2.61222220139505
H         7.33256986492056    8.08671855492657    4.70390267844781
H         5.76529327046328    7.27852938496981    4.74653109886467
H         6.22799076691844    6.50308139089222    7.08467575855161
H         7.84126014326411    7.24256522320096    7.00437459880553
H         9.69909704173582    4.98450685325417    4.56597447323007
H         9.79924296241624    6.29250442237842    5.76244523862685
H         9.06128444342166    6.58911710750241    4.15685877951086

