109
CSD_code = GAXZOX | q = 0 | S = 0 | Stoichiometry = C40H62FeN4Si2 | MND = 4
Fe       14.01907751260330   10.55520698268886   20.47967049427133
Si       15.24301339313007    9.14610073311163   22.92074425123700
Si       15.91666985137288   12.41303637679935   18.83385195478718
N        13.90224953938214    9.26612777034179   21.82023187354070
N        14.31441799547706   12.09378684844340   19.41340270054048
N        14.73467750712392    9.08421940354999   18.58142553683416
N        11.66058341776030   10.47362260783582   19.97692855555358
C        12.78583116740484    8.46118914123350   22.07844590077098
C        11.68160718871290    8.94859994596148   22.80735202971238
C        10.61794940389555    8.10594305287670   23.08782135795143
H         9.78542690092165    8.47235886852857   23.66832382868893
C        10.59927588501710    6.79546000072960   22.65213501960448
H         9.76370058398620    6.15229040376002   22.88687665832185
C        11.66557428002758    6.31915246651343   21.91746758570686
H        11.65559283849631    5.29379355197904   21.57765544123884
C        12.75376639346558    7.12581462962809   21.62464969671332
C        11.65077185401000   10.37270041361905   23.31133938257040
H        12.35587668857224   10.94902090779791   22.69760006946186
C        10.25849924910644   10.99769909163876   23.19295310386626
H         9.83209517279221   10.81774714505866   22.21013027652444
H        10.31438336389684   12.07122043981720   23.35623524922272
H         9.58299899230779   10.59127723100356   23.94238108349090
C        12.09543761681231   10.43179772950088   24.77528874960043
H        11.43238489759260    9.82883733404733   25.39351793724789
H        12.06362769643355   11.45779583511571   25.13723280984622
H        13.10439849982196   10.05127762548816   24.88545349972429
C        13.90417332734497    6.53916027690467   20.83935550828243
H        14.59439340355576    7.35554324711442   20.61257631785732
C        14.63696367497344    5.48570034682516   21.67377731436530
H        14.96756917099548    5.91120954691101   22.61612551911171
H        15.50465792419297    5.10925354169491   21.13401040720047
H        13.97996365812062    4.64607219504849   21.89050043623930
C        13.44874463558664    5.91636504582384   19.51679904893070
H        12.79986653985454    5.06081997893233   19.68741766270441
H        14.31402920233866    5.57522651534224   18.95039444912023
H        12.90876588186587    6.63796756931389   18.90790259757009
C        15.67430537065818   10.92518588709115   23.48365095035405
H        15.65276681756474   11.60653216480773   22.63864076206150
H        16.67072625800128   10.95907990177589   23.91110352456117
H        14.98449260189525   11.30459308415565   24.22956518703633
C        14.83973668449238    8.06251959270448   24.45252058199627
H        13.82238766555738    7.68624868118221   24.41397929561110
H        14.95200532176164    8.62046236208194   25.37726107755037
H        15.50384632255916    7.20608383889418   24.51885962167689
C        16.87807417421707    8.41292634474772   22.22546253757531
H        16.74064779421630    7.46631195270866   21.71479926547485
H        17.56763519726718    8.23993341378703   23.04667199738126
H        17.37031585837319    9.09717911794525   21.54364785193751
C        13.35076006353268   13.08453242455151   19.21812663568878
C        13.03437366768129   13.95122438885912   20.29014012319396
C        12.15173539825539   14.99946929180172   20.09157769789528
H        11.93854250401792   15.68017014326676   20.90199865906662
C        11.53377735794346   15.19402037969439   18.86948008100425
H        10.84918113981133   16.01776498152992   18.72903665306124
C        11.79924860462822   14.31970062735663   17.83526879352776
H        11.30656194859842   14.46324110296793   16.88455428661905
C        12.69907130862541   13.27543854840296   17.98706018632311
C        13.65304431158015   13.72750117299602   21.65137214646475
H        13.95786479787755   12.66722251982459   21.68796770869784
C        12.67081400678582   13.98108003338573   22.79564826731896
H        12.51913714144440   15.04660121970377   22.95581978875274
H        13.06296971328975   13.55838150216990   23.71792170133331
H        11.70853628419893   13.52313116622190   22.58605069271896
C        14.89367312936201   14.60171477983467   21.84286614166260
H        15.64491909826735   14.36269329957760   21.09833328479173
H        15.31707166060828   14.44136185325932   22.83266323895066
H        14.63184349148112   15.65399548056476   21.74477929341543
C        12.97417175325368   12.36212538326000   16.81822689752864
H        13.68359552035728   11.60424108496893   17.15913181669679
C        11.70076289417083   11.65409740573644   16.34860488430307
H        11.24412646313291   11.10389327814508   17.16735254504900
H        11.93308823314750   10.95716637312774   15.54468731730305
H        10.97171615138901   12.36946758087856   15.97517083022367
C        13.59954528452237   13.14135242370090   15.65893575657043
H        12.89410168231453   13.86465781124141   15.25601085811937
H        13.88695185469671   12.46446768956286   14.85570082158070
H        14.48145550113741   13.67852670346059   15.99749328890093
C        16.19502901876612   14.27897763632458   18.47684529015952
H        16.47552317366615   14.43922876369969   17.44028424863014
H        16.98710590701854   14.69863756953857   19.08953832199603
H        15.29265246511205   14.85307978185859   18.66180444689639
C        17.09918974804462   11.75954667096904   20.18302511326183
H        17.30303246164173   12.48636698990622   20.96095034786367
H        18.05060211735684   11.46156000033693   19.75694947095996
H        16.64717136137152   10.89002622644577   20.65129865853795
C        16.51419167834375   11.53792444743044   17.22700156719769
H        16.62497332347493   10.46898209004913   17.36677705344376
H        17.49188200852727   11.92838419937004   16.95791499153225
H        15.86091467553477   11.69318331148452   16.37679865039177
C        13.96064702261558    8.86423475463259   17.52572917385255
H        13.03521129550995    9.41979806238252   17.49950808144687
C        14.29253104361625    7.98634160011655   16.50624167622143
H        13.62999043258371    7.85265474089071   15.66518512885228
C        15.48777369060641    7.28969703163051   16.59047597642133
H        15.78238272875299    6.59748714855432   15.81534644163526
C        16.29782001940967    7.50834888972019   17.69462009277215
H        17.23944441444684    6.99282166606765   17.80409024817763
C        15.88206147382646    8.41753887236047   18.65332602610166
H        16.49424363124335    8.63340571564478   19.51526663712758
C        10.79065135371493   11.47721792980197   19.96877174408786
H        11.14034040937923   12.40893260277221   20.38283658567413
C         9.50397434204932   11.37193389322288   19.46343240794636
H         8.84703667367116   12.22743872708095   19.47674670441374
C         9.08353650262922   10.15276940171277   18.95671157740234
H         8.08617082371518   10.02815872848198   18.56108186332468
C         9.97971930452472    9.09398343627612   18.97896877050712
H         9.69976985708376    8.12012047368854   18.60824017374358
C        11.24746304022057    9.30624151621381   19.49226693421976
H        11.96666765990292    8.50408532842975   19.53934823679185

