100
CSD_code = GAXZEN | q = 0 | S = 0 | Stoichiometry = C33H61FeN2PSi2 | MND = 3
Fe        1.79822570209236    7.81843843721286    7.70455543261825
P         3.73973676742806    7.34829232424351    6.06223176563166
Si        1.86329735945599    7.78127035881266   10.86732269753288
Si       -0.32951343176974    9.44160595205671    6.52511727762362
N         2.69603771972931    7.69379727827034    9.33797708694978
N         0.61458694635343    8.03265913883694    6.19159563672764
C         4.09390546830466    7.65361212368718    9.39967383491289
C         4.80307677618704    6.44530024771879    9.53412934280297
C         6.18932721826979    6.46870878522799    9.56721190793054
H         6.73460025855743    5.54173180085558    9.66417602567312
C         6.89030869653498    7.65523821194603    9.48422286527640
H         7.97032013112571    7.65450737249843    9.50589823656047
C         6.19574600923050    8.84734971973139    9.38849247395038
H         6.74785959473870    9.77363286823576    9.34312243233201
C         4.81138967740574    8.86825863023369    9.36448338144616
C         4.08238797056556    5.12205635298097    9.64395723373063
H         3.02099495669604    5.34052210931222    9.78907399087356
C         4.23679540551897    4.31278027371675    8.35539888395015
H         3.88092071279320    4.89129879105657    7.50785748578200
H         3.66227704543753    3.39107798753752    8.41674914989493
H         5.28136591340351    4.05518699065307    8.18968026827049
C         4.58401874341512    4.28476780342371   10.82403898993669
H         5.56734712340893    3.86898716519070   10.61674709739159
H         3.90357202862452    3.45521814714130   11.00613772880931
H         4.65359555611797    4.88197769540653   11.72787737423829
C         4.05770832179145   10.17812090667157    9.32257234267978
H         3.09657684092484   10.00535464484783    9.80660910355886
C         4.76480612740107   11.30467780536507   10.07652401970754
H         5.08420512961177   10.96650226479674   11.05964868894819
H         4.08339033847525   12.14337702507535   10.20542438639529
H         5.63509555051640   11.66475302457158    9.53267582205036
C         3.76802229378650   10.59942510676297    7.88115483674213
H         4.69797193300220   10.73020659995062    7.33166358586181
H         3.22222828756312   11.54068032749905    7.86633027580471
H         3.16041267135119    9.83195047723158    7.38760423784928
C         2.89231937820412    7.03449395455902   12.29640949953778
H         2.75418852088439    5.96288748131941   12.38227319692199
H         2.60435244196401    7.47582162885761   13.24515567423224
H         3.95107851206966    7.22569199913845   12.15377285847227
C         1.40259041054640    9.51085061861476   11.57672417242663
H         2.27608094513429   10.04262322320463   11.94308973312421
H         0.73494097564503    9.37471887870354   12.42329355108866
H         0.89224528781254   10.15391041070225   10.86981216773531
C         0.23334514270716    6.80365455029257   10.69246254867654
H        -0.18286289766864    6.90399965789423    9.69732828946078
H        -0.50079700295423    7.17109602286149   11.40011156595728
H         0.37253908246698    5.74689718689701   10.89110401573329
C         0.20756752290769    7.09846432537845    5.24395682011934
C        -0.26185031893609    5.84794433383428    5.70884934938484
C        -0.62507982229531    4.85609028312322    4.81568816522460
H        -0.95617245902507    3.89817248607950    5.18657363781266
C        -0.58738624933176    5.07609135548938    3.45245655493230
H        -0.87452270147050    4.29769984357210    2.76126860072156
C        -0.19899255885126    6.31649451938664    2.98970927130179
H        -0.20166509471607    6.50251621528101    1.92610568517607
C         0.19856081122131    7.32869971554153    3.85182644859863
C        -0.38137493242723    5.60181096219825    7.19174610293903
H        -0.41211296686781    6.58898901180556    7.67424267727255
C         0.85729149549466    4.86148430044360    7.70061135990886
H         1.00716655430877    3.94470039763916    7.13441942893088
H         0.74719547081696    4.60723793498923    8.75100435410973
H         1.73636576898991    5.50273292885275    7.58044452169869
C        -1.65789864580987    4.85102964216508    7.57122858825209
H        -2.52380431314085    5.30008503048726    7.08998067258406
H        -1.80143589910121    4.89181482279313    8.64921490054837
H        -1.60489466904472    3.80432792691332    7.28198006222695
C         0.59822550955555    8.65244358598308    3.24641651115457
H         0.99938307941486    9.27617443247112    4.04539180134092
C         1.67410605349578    8.48896177456300    2.16785280850600
H         2.47996196655980    7.85138557618969    2.51953184136685
H         2.08742932042826    9.46056194184873    1.90378671741950
H         1.25871423495038    8.04626461574448    1.26588871276909
C        -0.62245145131359    9.35806685949924    2.64969706748603
H        -1.06168308279848    8.75638931636630    1.85688352995380
H        -0.33293437716360   10.31906375779677    2.22772175244390
H        -1.37971822611368    9.52475904302282    3.41044732550059
C        -0.09836388258656    9.77545813084045    8.38745118895427
H        -0.57741702285724    9.02873757685441    9.00839279429357
H        -0.51071769854342   10.73998256488866    8.65924362531702
H         0.96255402578876    9.79107309627553    8.63174467462983
C        -2.18036999362030    9.15773520466061    6.13511263506513
H        -2.29495738424465    8.44420048716029    5.32495706985866
H        -2.67813685769660   10.07751494362872    5.84551151020457
H        -2.70632163451535    8.75554779535395    6.99531924393554
C         0.25768679218669   11.08515486295690    5.71407633794218
H         1.34138080343675   11.16278231585804    5.70114236779193
H        -0.11697231381630   11.92386644077134    6.29313732517199
H        -0.09818175363306   11.21396501917427    4.69852831229051
C         3.93156843435732    8.76883407283236    4.88940343754749
H         2.96129179515235    9.20438277781813    4.67770686917507
H         4.39450608304127    8.44355356389261    3.95944605174449
H         4.56173338466671    9.52620222265420    5.34773118457864
C         5.55627178072443    7.04786625266000    6.26013727960285
H         5.98109924579314    7.83363532817420    6.87891211794519
H         6.04727817521280    7.04803350679927    5.28798833668140
H         5.73767985332268    6.09918202274638    6.75338283756036
C         3.40366618412414    6.01393035495095    4.82317119023538
H         3.43079302025686    5.04110076211828    5.30846204592754
H         4.14425643282373    6.02902346350935    4.02450841082956
H         2.41096387001867    6.15360993214782    4.40463470919964

