112
CSD_code = GAYBUG | q = 0 | S = 0 | Stoichiometry = C56H34F12IrN5O2P2 | MND = 6
Ir        2.62910935482372   12.95478788116908    9.40868808865693
P         4.08308259443627   10.83757844316527    7.36072610155865
P         4.79558348472294   13.49826391479135    7.03388415981055
O         4.43721605849956   13.83997093590088    8.45718436648433
O         3.33022404313074   10.96570709588565    8.66166175072505
N         4.14366357940487   12.15031537708220    6.40050270968453
C         3.31646871938707    9.56037538202373    6.33044442472148
C         2.86041678807793    8.40446512348498    6.94682177442556
H         2.96556964728267    8.30698730333358    8.01862521494427
C         2.27243759137546    7.40552254169682    6.19266349478737
H         1.91354679736359    6.50545001963392    6.66996710301682
C         2.14494939142111    7.56196317722079    4.82148398287395
H         1.68683013321631    6.78184440420932    4.23136487328112
C         2.60153010691607    8.71630046414541    4.20555724465969
H         2.49965773576652    8.83312920617781    3.13610728350112
C         3.18894272785567    9.71641558275165    4.95946764852422
H         3.54835237365252   10.62749027700687    4.50543258445340
F        -0.60150734608088   14.09714952941891    9.47576760066497
F        -2.30728273102082   12.87787254389700    9.90958243193253
F        -1.01488175726452   12.35624381926533    8.28467997931537
N        -0.93722743531272   11.23806738967490   11.29243884177101
C        -1.02770295401240   12.82145523543166    9.55104799414936
C         1.20799711080899   12.01166253262402   10.49273247744288
C        -0.19123237984150   11.97866358096563   10.48857392540611
N         3.73733464296755   12.38453113775168   10.97155120167328
C         3.26950028611177   11.28909957817208   11.57323851908649
C         5.00814045438669   12.77247640756477   11.15873500587499
H         5.29577075295823   13.69238955650807   10.67243589015834
C         5.87965501977499   12.07068282142970   11.94206159114485
H         6.87632960304066   12.44051916089810   12.12304179102318
C         1.81348269851744   11.18214056391328   11.47968239162862
C         4.14593503552648   10.39066398236793   12.24050434696551
C         1.03223957021681   10.46259889464303   12.37784159617553
H         1.45852057303350    9.91960889611116   13.20495691029553
C        -0.34380277687898   10.50429208117314   12.21193112725717
N         1.64307411551352   13.42748080814719    7.74483258675286
F         1.97697285412867   13.97111046539196   12.52723218197467
C         0.86002691489006   12.87755423716037    5.57472439430018
H         0.68777060359914   12.12731566668507    4.81968357445107
C         1.42872938840643   14.72646150532003    7.53010269304068
F         3.90483384621024   14.90542374856186   12.66706212193796
C         0.75441141358370   15.17522760254519    6.36027472512062
C         0.54213288495256   14.22556756849469    5.32101470588536
C         1.33744128926832   12.52155139680923    6.80227327729857
H         1.48864255085463   11.48385320838959    7.06124172194253
C         1.89649447942090   15.56581746545668    8.63167819633775
N         2.60130250742656   17.00129813502486   10.89027612967162
C         2.46084671060026   15.68388810554405   10.93807133964338
C         2.61832896969779   15.14082918849988   12.34051884685966
C         2.19156921325468   14.86840028696337    9.83668117883866
C         0.23033379249282   16.47355723180434    6.18321173319181
H         0.22086638058791   17.16449473958611    7.00822472862927
C         2.13374757727201   16.93302103467148    8.55477854245397
H         2.09406367554806   17.47275722646733    7.62348779830664
C         5.48404946596156   10.82420535230979   12.46810901013468
C         2.50861293107621   17.59274012184055    9.71751399048684
C        -0.03067246889112   14.63970402055734    4.10214166616200
H        -0.16042679048477   13.90777501980434    3.31891461141189
C        -0.34366926556010   16.84015524046604    4.99628821184639
H        -0.74560737528532   17.83521960265669    4.88054291082211
C        -0.43936171337877   15.93223968180794    3.93164647867634
H        -0.87752656754438   16.25047495094317    2.99772640608477
C         6.37854721654873    9.98444349934289   13.16145539863765
H         7.38089009509266   10.34062186819452   13.34787983440230
C         3.80214077196847    9.07019595595079   12.60487826428231
H         2.84242231926451    8.67172312253439   12.32063388469160
C         4.26521658269535   14.82937783125798    5.92250446108126
C         6.60717337738108   13.40202095466382    6.90634533045114
F         1.70223622523335   19.78719715501969    9.36373931719220
C         4.42115596977267   16.13810789619506    6.35591592603072
H         4.88540682974199   16.32121355144067    7.31527284223439
F         3.68520794891907   19.34966562163224    8.67499311606493
C         3.67804954565238   14.56920297083171    4.69456425740311
H         3.56864004806775   13.54295704021950    4.37755338012708
C         7.19328703088708   13.41444590216589    5.64894893387442
H         6.57024419431279   13.57680045070733    4.77996383314552
F         3.30725390571458   19.57025149705506   10.78127140152085
F         2.14761113738233   15.97691028424296   13.26439578790322
F        -0.62651290017636    8.65317674840370   13.65346013305819
F        -1.67397169846434   10.45325208532545   14.17371477506015
C         2.80435263750004   19.07067913009108    9.66002643556756
C        -1.25649049549894    9.72330563364756   13.12826618214040
F        -2.34417926699158    9.25943999809164   12.51454138094982
C         5.76507337843600   10.24154129744656    7.71891978854210
C         9.33169872257882   13.00216157369558    6.64982447875794
H        10.39562439009507   12.84513417720720    6.54928937075784
C         6.15159091215852    9.96823698000801    9.02067601152873
H         5.41906490923182   10.03684647029062    9.81144946097256
C         3.38016123791944   16.92334698202236    4.34692136217399
H         3.02932524385619   17.73949713556629    3.73265123976075
C         6.68207007064689   10.13434007956386    6.68268797122063
H         6.36141839940138   10.34909002297271    5.67305231358409
C         3.97698286641050   17.18605989323451    5.57017778195959
H         4.09843690668066   18.20433761756505    5.91016761034764
C         7.38402754200925   13.18524540906204    8.03320420705862
H         6.91284209551563   13.17141499239249    9.00541928679992
C         3.23706223029834   15.61759547292639    3.90672785797293
H         2.77858066403036   15.41872314163122    2.94892227031800
C         8.55555864194834   13.21837527000386    5.52175386739216
H         9.01514776171264   13.23053315516199    4.54404617892687
C         8.74674489889068   12.98656299881785    7.90483374948284
H         9.35281855664702   12.81633595983450    8.78277752948773
C         7.45868651314232    9.60539181043312    9.29254195080132
H         7.75831485481274    9.39505648908697   10.30967094812878
C         8.37628625957077    9.51195419801884    8.25982478164751
H         9.39858417256026    9.23376793221823    8.47017902198428
C         7.98667770193762    9.77008453694296    6.95410667309827
H         8.70428255292063    9.69132481210944    6.15075063453495
C         5.98937065272286    8.73702851263720   13.56225762255483
H         6.67588115501775    8.09316352503765   14.09085638266214
C         4.70436414072485    8.26798979775804   13.24897406633339
H         4.43190421540541    7.25726210551399   13.51207051502879

