49
CSD_code = GAYMAU | q = 0 | S = 0 | Stoichiometry = C22H18MnN3O4S | MND = 5
Mn        1.43496898645917    5.34434593531048    1.80434359867484
S         3.12823567626058    6.14381588857520    3.39147340612064
O         1.33898940586685    3.75109129020741    2.55134854467437
O         2.03112175984558    5.00378596891515    0.21184295771115
O         7.27970927786200    5.08403980591163   -1.59304108989085
O         7.60682136212879    7.19119691069310   -1.30956239821548
N         0.06102241839905    5.98099012727632    2.93871605654932
N         1.36256230328538    7.25049811663653    1.15637372194094
N         7.10402631360570    6.12809340714016   -0.98771472165544
C         4.38813852680868    6.11414752171038    2.19589943356443
C         5.06084596563311    7.29329311853695    1.85439479492659
C         5.97209426058674    7.29502786777197    0.82596532959957
C         6.23967496441184    6.10975835843376    0.14109828061501
C         5.63845259870099    4.91091863895421    0.53118700519375
C         4.72666951579689    4.91366174253477    1.55786487704378
C         0.30986583468755    3.11950010199058    3.00915592548130
C         0.29701094986698    1.70751034170100    3.06543726536161
C        -0.76317125053837    1.03260979640716    3.61127873734522
C        -1.85023480261007    1.72587484161783    4.15510401063921
C        -1.86428822631296    3.09585187489088    4.13245538285802
C        -0.81342792639768    3.82574765759223    3.54869721389809
C        -0.82784629959716    5.24520591251889    3.54360583161494
C         0.02994905668437    7.41474465374300    3.17280716130923
C         2.74245692439904    5.59098908822124   -0.70867155415526
C         3.42214166224630    4.85593605456362   -1.69135416320611
C         4.21290714211600    5.49456932745033   -2.62108287005071
C         4.33363166489322    6.88226887240798   -2.61692687139857
C         3.64466398038678    7.62934086694869   -1.68749349584080
C         2.84212137870310    7.01191629593537   -0.72230179023046
C         2.05963320592439    7.77424537534214    0.20307780584741
C         0.45118351446064    8.12195867258518    1.88030926030986
H         4.82560667849141    8.19910553602977    2.39030829275861
H         6.47147295489349    8.20028462650651    0.51593530518319
H         5.89967831521753    4.00322004481271    0.00875131431299
H         4.23288615233411    4.00199487856949    1.86917471112660
H         1.14390855327461    1.18069834293848    2.65155707572245
H        -0.75739817163118   -0.04716874490525    3.62997266345029
H        -2.67104991497912    1.17858179521098    4.59208954919494
H        -2.69777450596440    3.64111430439651    4.55241670691617
H        -1.62125276507036    5.73326184523310    4.11107861760679
H         0.76472614496884    7.63108990713695    3.95917260934979
H        -0.96000596758960    7.75127998932925    3.50257618207835
H        -0.43079153314822    8.29156532297310    1.24963013081221
H         0.91668851374538    9.08988592005212    2.09650186689017
H         2.01580742103924    8.85218031079229    0.03352669399298
H         3.72478147899240    8.70654087356822   -1.68630923982026
H         4.96722061605807    7.36888980761077   -3.34147693587211
H         4.75678601463730    4.91189796610107   -3.34843431935483
H         3.33147987016196    3.78014284114782   -1.67965887099514

