43
CSD_code = GAYPOL | q = 0 | S = 0 | Stoichiometry = C12H22Br2CdN6 | MND = 6
Cd        0.88861523222134    1.52191800196662    9.08505048428420
Br       -1.21532040889864    2.66679053751464    9.84513653795947
N        -0.38172988143903    0.10683303383899    7.33982944921177
N         1.79640026572036   -1.52065706633330    6.50620827233555
N         2.14870111808145   -0.92330438429478    8.71704679275740
C         1.24240620907477   -1.66527418409092    7.82968399850517
C        -0.19282583461298   -1.16426358065721    8.03884754326574
C        -0.02333621131749   -0.01676642597493    5.93138785568698
C         1.47701518477255   -0.25350429520888    5.85784468457746
C         3.22653063751444   -1.67892957092922    6.75054082800020
C         3.48792053700951   -1.08063443967915    8.15314960534012
H        -1.35898300265961    0.38563868596549    7.43488214592735
H         1.27316252662197   -2.74855430229574    8.06055098398952
H        -0.89932971628227   -1.93277730330581    7.65158766666242
H        -0.55346284815630   -0.85562440871795    5.45403628172479
H        -0.28085284651562    0.91034024905569    5.41536084067997
H         1.99431203939682    0.59739445967857    6.32578731055485
H         1.79797029876812   -0.33170900714303    4.81684034460759
H         3.45395944790956   -2.74820121975670    6.74100557842643
H         3.80318519736973   -1.18923675228476    5.96953093497767
H         3.98058319300862   -0.10739292716669    8.08946780607329
H         4.10526447481478   -1.75318315971544    8.76149860065726
Br        2.99256143492412    2.66681131585922    8.32501892636425
N         2.15897175436349    0.10683613236856   10.83028259349845
N        -0.37145893973859   -0.92330992851134    9.45306215020779
C         1.97006885993289   -1.16425944256599   10.13126262464207
C         1.80057427650416   -0.01676131263231   12.23872351578957
H         3.13622519977760    0.38563929850090   10.73523333790131
C         0.53483861352154   -1.66527493340650   10.34042635035528
C        -1.71067744422325   -1.08064069642473   10.01696125795358
H         2.67657435871709   -1.93277324184512   10.51851987752691
C         0.30022313013126   -0.25350039302248   12.31226108679785
H         2.33070122724642   -0.85561750905411   12.71607741724454
H         2.05808849861024    0.91034719776438   12.75474784999189
N        -0.01915603832854   -1.52065793284731   11.66390170971397
H         0.50408601637537   -2.74855528955987   10.10956023562654
C        -1.44928545921418   -1.67893661791116   11.41956916537380
H        -2.20333889421991   -0.10739880731169   10.08064634759005
H        -2.32802280342594   -1.75318768892392    9.40861210992921
H        -0.21707304356714    0.59739545798097   11.84431181195414
H        -0.02073568603180   -0.33170022015297   13.35326454833412
H        -1.67670836377258   -2.74820950012396   11.42910252998048
H        -2.02594230998419   -1.18924782864604   12.20058000701905

