45
CSD_code = GAYQOO | q = 0 | S = 0 | Stoichiometry = C20H16N5O3Re | MND = 6
Re       10.17504412639847    9.68187812944214   10.81474284835281
N        10.62425745899335    7.69939419104845   11.53768617854379
N        10.96970514207461    8.67059719641609    9.11857476665726
N         8.10066778234602    8.70069198980195    8.64260457555734
N         7.26224389284635    7.71006950421145    8.32088821778725
N         7.01343309397264    7.03669781344258    9.37726192143885
C        11.93206543180164   10.33017501492719   11.41010791443341
O        12.97305069297974   10.68951327718950   11.71468932761969
C         9.78897852190584   11.39684894290400    9.97527787371518
O         9.59798258441555   12.42346848530587    9.48981192764394
C         9.35930918338036   10.36910229941976   12.45044516763160
O         8.93573048309038   10.78502682527888   13.43321451676890
C         8.40944563533774    8.69188257753229    9.97235557166195
C         7.67375020509394    7.58716981935529   10.42234425974346
C        10.48196863239568    7.23818244960152   12.77728366674604
H        10.19061437350847    7.95849314578027   13.52977806308522
C        10.69051291788932    5.91408296706018   13.11753673258334
H        10.55748408942102    5.59756383916420   14.13851424318909
C        11.05542028834209    5.01013385837239   12.12662214248291
H        11.20410322090972    3.96705907997893   12.35814259854670
C        11.23251474888044    5.47841960149762   10.84155335399610
H        11.52726892372979    4.82161413458714   10.03768646254841
C        11.01821006246679    6.83253114025752   10.57777486719388
C        11.20690425164399    7.41466210524738    9.27371881612679
H        11.54527065077803    6.78417950800792    8.45392853462987
C        11.11058430894694    9.22457047204742    7.78915883406339
H        11.96381069860793    8.76264024941474    7.27489550958149
H        11.29127466615146   10.29944620077347    7.88262232466341
C         9.84982998174602    8.99334439514576    6.93933317158056
H         9.71340768631324    7.92225662383679    6.76687906710537
H        10.00436878031086    9.47674038096744    5.97411503336211
C         8.56825624368074    9.54429538221964    7.57551133656895
H         8.72111798305183   10.56095143967364    7.94262375166509
H         7.77594512898399    9.54818773301391    6.82221449365390
C         7.56761199959690    6.99631010409235   11.74990722969661
C         7.59902085648607    5.61039282053726   11.88942250456258
H         7.68040100323730    4.99719898374041   11.00353151859648
C         7.52263775069325    5.03418121509727   13.14245862208108
H         7.54980942826992    3.95803125572084   13.24235451091046
C         7.40593424530782    5.83122936948663   14.27054636500041
H         7.34624710741262    5.37827589082411   15.24989526930872
C         7.34444015846535    7.20830075460244   14.13666226990216
H         7.22862570022841    7.83299835751618   15.01081688002726
C         7.42152126426817    7.78931728697870   12.88429982473138
H         7.34231861363927    8.85989318847993   12.76990693425558

