49
CSD_code = GAYQUU | q = 1 | S = 0 | Stoichiometry = C21H19N5O3Re(1+) | MND = 6
Re        1.35867723099576    5.09055958481234    3.97267079048999
N         1.88915402626131    5.82414308662491    2.00229754098395
N         2.60002028873837    6.78167224977788    4.35577573851212
N         4.26457904048159    4.27007064844436    4.94243299654678
N         5.40939643355225    3.71465039397754    4.62810918977591
N         5.23515461502647    3.17355784509035    3.45803077623710
C        -0.27782996837848    6.18599650831724    3.88630725935896
O        -1.19459072542741    6.85398652972094    3.82811718582025
C         0.94049338503141    4.61491852408302    5.82045857611816
O         0.66187611006115    4.37891362724071    6.90595785092433
O        -0.29178264935716    2.67225164501144    2.96148034220292
C         3.30123769783970    4.10348547075975    3.99777611064498
C         3.97212898259791    3.37512637437592    3.01212957912370
C         1.49494931102204    5.34192742256423    0.82895421245923
H         0.87219743885179    4.45781820367183    0.85240498480784
C         1.84745493577793    5.92127699285170   -0.37929978896529
H         1.49423919836620    5.48919318272326   -1.30082619678050
C         2.64970289068277    7.05430344140568   -0.37886083225597
H         2.93958813272971    7.52835988516154   -1.30314046449312
C         3.06372592053050    7.56794582201147    0.83636892992533
H         3.68134636355697    8.45081129384398    0.89096112713488
C         2.66151104729620    6.93216336977417    2.01000359982787
C         3.03599821926667    7.40693568524677    3.32426307612723
H         3.67913818626022    8.28114513338625    3.40445053816638
C         3.05600250323289    7.21422844232783    5.65736572208729
H         2.26855815464259    7.00983089401815    6.38752631266958
H         3.26758457822587    8.29044270348494    5.65288574994181
C         4.34105201541218    6.47806813649627    6.07353823592111
H         5.14049207981526    6.69895732692292    5.36105861322223
H         4.64082588919039    6.87448470776881    7.04341101763140
C         4.19410035022270    4.95853632499892    6.21038191023453
H         5.02554657180961    4.57196094025478    6.80360603500787
H         3.25207011745680    4.70649152181126    6.70056501434054
C         6.29278291847586    2.44271793170505    2.82274499788169
H         7.02841450190030    2.18060981106914    3.58034128042020
H         6.77334859987641    3.04945344407402    2.05416156993856
H         5.88997698254997    1.54226730638352    2.36081931621581
C         3.50556081404807    2.88993394366411    1.71138385868800
C         2.50647645075336    1.92421517168371    1.64579388212506
H         2.10457619129233    1.51283005471076    2.55890718536676
C         2.05345947027197    1.48395844219840    0.41502571900187
H         1.28057864116212    0.73299559360561    0.36880147646855
C         2.59293211417845    2.00156330659930   -0.75139393545485
H         2.23939167996872    1.65495800481826   -1.70991090473053
C         3.59353576084817    2.95791502964664   -0.68881575987520
H         4.02145388431662    3.35670932418482   -1.59593395840046
C         4.05265012690245    3.40135178937648    0.53785991469702
H         4.82524785614363    4.15727627535741    0.58513167222038
C         0.33321563553912    3.54023065196155    3.36272195168754

