81
CSD_code = GAYRON | q = 0 | S = 0 | Stoichiometry = C26H34F12N2NiO6 | MND = 6
Ni        0.01829390734172   -0.20772527346119   -0.18751773225522
O        -1.75775869933780   -0.48161007479904    0.20410094693886
O         0.80203013825982   -2.27558887920178   -0.35228554430885
O         0.50705221660669   -0.68119204944105    1.87780199990829
N        -2.29250306417503   -1.04496223390994    1.18784591411088
C        -3.03009107678555   -0.26923202490565    2.18611548741855
C        -3.71676031260204   -1.34969266205074    3.02794304011524
C        -3.80416018254620   -2.55152252549023    2.08773238400829
C        -2.49331118125825   -2.48763183577100    1.29315935964524
C        -2.05555320036585    0.60698321329265    2.96751397064557
C        -4.05729352930883    0.59063588654459    1.44170181178010
C        -2.56864402494448   -3.08378671083712   -0.10694561185154
C        -1.35818820710776   -3.14228009404244    2.08419981674127
C         1.78441248784700   -2.69408107889730    0.28904816724882
C         2.21963610791336   -2.29400139595904    1.55364042357972
C         1.56308774449702   -1.24155001419243    2.20456361549521
C         2.62795308386150   -3.79927830915190   -0.39144826718241
C         2.27000820288083   -0.70988780468933    3.47445373188210
F         3.94079439737778   -3.70529424837129   -0.12098543858899
F         2.24056427215494   -5.01789564819023    0.02238111959559
F         2.50945989157836   -3.77951634743718   -1.72182526959679
F         3.28816808104160    0.10910751722903    3.15877902998323
F         2.79238635304142   -1.69171097525793    4.22831131793764
F         1.43833092532685   -0.02225127327479    4.26044602645075
H        -4.69658138363883   -1.02344036884548    3.37039603411451
H        -3.11571165563227   -1.59168429672739    3.90379852829837
H        -4.65526124433667   -2.44956495930481    1.41298574041056
H        -3.90408012412542   -3.49194767819799    2.62475563368065
H        -1.36758292488186   -0.00078474768188    3.54795683448372
H        -1.46316257849081    1.20928146120371    2.28274851464980
H        -2.59956276250432    1.26619349999491    3.63752420207041
H        -3.56793898521166    1.14805878300841    0.64864325208407
H        -4.83090745169387   -0.02846593791214    0.99349929563506
H        -4.52212241426553    1.29388255433020    2.12599433697664
H        -2.76662853501066   -4.14996893058095   -0.04443775383077
H        -3.35752444893456   -2.60982835219888   -0.68760730533066
H        -1.62271750838860   -2.93343308022550   -0.62448618202478
H        -0.43206094763020   -3.06007959095248    1.53002506834555
H        -1.22819313270222   -2.66946696206455    3.05281658491093
H        -1.58084310911450   -4.19591100603059    2.23095022840291
H         3.10978731535405   -2.72282403576974    1.97936494044079
O         1.69356598271117    0.57334196711102   -0.09951683720115
O        -0.71673526588519    1.95770551785640    0.19219295729661
O        -0.63678005280950    0.37797737442834   -2.13254725838994
N         2.22912686582342    1.11542887120108   -1.10492920999162
C        -1.66444646082008    2.47018497740753   -0.42109632542920
C        -1.64204617920318    1.05722348447133   -2.39105518369286
C         3.02778570344609    0.34059141985757   -2.06250059063819
C         2.42752005456851    2.55898905179574   -1.21629971644388
C        -2.18343644719904    2.12710755255704   -1.67415328509759
C        -2.35689385229852    3.68279369110493    0.25673132254416
C        -2.42258969907685    0.67574377590063   -3.67297277166605
C         3.75803879864551    1.42316791787241   -2.86608744911198
C         2.12992967972889   -0.55090816236784   -2.91339924739923
C         4.02387098939653   -0.50110985000358   -1.25606538442963
C         3.78337204803931    2.62983923366892   -1.92851393869135
C         2.40102982692503    3.18154723377332    0.17191777707648
C         1.33792778886419    3.17205416564635   -2.10174191684787
H        -3.04008985695535    2.65151477549235   -2.06081024100251
F        -3.69122232134516    3.68801363028288    0.09753166898246
F        -1.90691232436261    4.83626480236085   -0.26898368165783
F        -2.12634592274489    3.73509262990177    1.57039062096391
F        -3.54860012043521    0.00293033128581   -3.37184943490335
F        -2.80089913798182    1.74757372777553   -4.38847957879307
F        -1.70689515517808   -0.10133926572646   -4.48811181351645
H         4.75805099994007    1.09839181763594   -3.14629824649637
H         3.21242994063307    1.65807086851156   -3.77942389494023
H         1.45202759414934    0.04485610716866   -3.51867307805651
H         1.52677338589187   -1.20097093222975   -2.28044104883462
H         2.73391783410362   -1.17352510182420   -3.56763690742574
H         3.50156308534412   -1.06597212534525   -0.48940361244186
H         4.75772646371895    0.13281371821499   -0.76396704302571
H         4.54140205793168   -1.19645709601201   -1.91038287456784
H         4.59205147690891    2.53569122027678   -1.20268174324735
H         3.90962958995079    3.56843743839521   -2.46319873370223
H         2.56278002736010    4.25313376704418    0.10146745166606
H         3.17125911895017    2.74470620042909    0.80370570883431
H         1.43527646684171    2.99653630863777    0.63680241031033
H         0.36975491018685    3.05584296210047   -1.63338695819429
H         1.30808834997838    2.69729654201252   -3.07784148168169
H         1.53217131624602    4.23336794151127   -2.23194868312175

