53
CSD_code = GAYSUU | q = 0 | S = 0 | Stoichiometry = C20H30NiP2 | MND = 4
Ni       -0.00000000001204   -0.00000000012906    9.90138736902520
P         0.59378815993511   -1.64161055845412   11.28019960581608
C         0.61769456584051   -0.40024821773742    6.32872891265724
C         0.56194770430944   -1.56493666883432    7.26312035777006
C         1.00123148049082   -0.78223867220961    8.46844454948794
C         2.34168413099423   -0.56725742592105    8.59456209160854
C         3.29849890277577   -0.73912770791841    7.55246704234000
C         3.05085016891540   -0.51480587695304    6.22921577134265
C         1.79502589128789   -0.05032124790169    5.75813013006525
C         0.63298468638926   -3.30926331885865   10.51686000425604
C        -0.57460460994764   -1.97336594557432   12.66545026178332
C         2.19078561678906   -1.69214329286621   12.19075736073765
H         1.28837360246439   -2.33703691180813    6.99883197645737
H        -0.43946959637853   -1.98224008002434    7.34748812311647
H         2.73968578147093   -0.17750948940858    9.53189589537698
H         4.32897824096071   -0.88614299602632    7.85775501633958
H         3.89087901127033   -0.49039479596754    5.54571059758984
H         1.80023126660307    0.67820102492074    4.95727118727533
H        -0.32127489673823   -3.49867489147598   10.02884735284064
H         0.82090978802747   -4.07690179915561   11.26702339272740
H         1.41366283610338   -3.33135758720186    9.75922996002596
H        -0.58078366282122   -1.13284648938090   13.35744266964709
H        -1.57740214025135   -2.09408133355608   12.25851934183295
H        -0.29267994290496   -2.87905008420515   13.20102493785906
H         3.00575213612320   -1.72451830731793   11.47086255636648
H         2.23501282952492   -2.57596406822177   12.82571784725018
H         2.30289743207513   -0.79946244444726   12.80299937288063
P        -0.59378815991656    1.64161055833913   11.28019960557160
C        -1.00123148048297    0.78223867219664    8.46844454956581
C        -0.61769456584540    0.40024821772518    6.32872891269565
C        -0.63298468638247    3.30926331887605   10.51686000431754
C         0.57460460976878    1.97336594560012   12.66545026169022
C        -2.19078561664329    1.69214329290421   12.19075736073000
C        -0.56194770429079    1.56493666880810    7.26312035782522
C        -2.34168413099312    0.56725742589847    8.59456209163946
C        -1.79502589129044    0.05032124791652    5.75813013007842
H         0.32127489674112    3.49867489148232   10.02884735289299
H        -0.82090978802848    4.07690179918534   11.26702339279509
H        -1.41366283609322    3.33135758719842    9.75922996008869
H         0.58078366268005    1.13284648941110   13.35744266955975
H         1.57740214008069    2.09408133356582   12.25851934176846
H         0.29267994279827    2.87905008423211   13.20102493782657
H        -3.00575213598246    1.72451830735615   11.47086255637190
H        -2.23501282942205    2.57596406825991   12.82571784726008
H        -2.30289743197224    0.79946244448359   12.80299937286858
H        -1.28837360243982    2.33703691178277    6.99883197649544
H         0.43946959640306    1.98224007999407    7.34748812314173
C        -3.29849890277229    0.73912770789050    7.55246704236661
H        -2.73968578148341    0.17750948938533    9.53189589539596
C        -3.05085016891558    0.51480587694709    6.22921577136502
H        -1.80023126660247   -0.67820102486557    4.95727118725015
H        -4.32897824095136    0.88614299604577    7.85775501635814
H        -3.89087901126281    0.49039479601308    5.54571059760443

