69
CSD_code = GAYSOO | q = 0 | S = 0 | Stoichiometry = C24H43NiP | MND = 7
Ni       -2.17129437303588    8.66938957364430   12.25316149373132
P        -4.08687134479908    9.36641869687374   11.34891985166178
C        -0.68743036904724    8.24426539302497   10.61411476648710
C        -0.62065525119931    7.18810625966094   11.45262112209905
C        -1.52176540039579    5.98259538118850   11.40796841442961
C        -2.04399979273694    5.63738025861200   12.81717761493134
C        -2.70485498858187    6.82639826640181   13.47516821623429
C        -2.03410554833316    7.64960193812979   14.30927856435914
C        -2.63702904005203    8.75707125484684   15.13099667012780
C        -1.79837799346664   10.04514211216750   15.00765414537545
C        -1.60417723914401   10.44191367117089   13.56375013641692
C        -0.50326317043570   10.09753271001624   12.86269455857693
C        -0.16778293624692   10.55370171318680   11.46777861057656
C         0.32708549999413    9.36255962305621   10.62285370076953
C        -5.42037754756612    9.57128916994476   12.61902760922537
C        -4.24365098765888   11.11199358514705   10.74264084317074
C        -5.07586119862902    8.41968495565045   10.05130770814267
C        -5.64247607606655    7.16206188145091   10.71998684192399
C        -6.51426475545641    6.32914179635336    9.78059981488222
C        -5.71191492759285    5.94562416259338    8.54203260328372
C        -5.16473427867261    7.19732893255654    7.86821499635689
C        -4.26034075554163    7.98352614823630    8.82183232530361
C        -3.52084924255051    9.13126479395698    8.11154378989185
C        -4.44979192223726   10.11894397165841    7.40949409382477
C        -2.49204302539497    8.60761759264872    7.10623621989198
C        -7.04532028550058    5.09149857855718   10.49919971643465
H        -1.39639394634700    8.24527287897116    9.79240633367657
H         0.22366350865761    7.09808010926760   12.13153058536986
H        -0.96626401115416    5.12353456989196   11.01410271801437
H        -2.36827724761756    6.17757663884551   10.74437840728305
H        -1.19905694398026    5.31199258135753   13.42996396778785
H        -2.75268643804544    4.80858325842705   12.74594848709824
H        -3.78618325109232    6.89583728077124   13.38468798367239
H        -0.99622357563820    7.42828286279693   14.54621480853676
H        -2.66637880466112    8.45150731100632   16.18340669345703
H        -3.65888247711217    8.95348184611543   14.80183829499228
H        -0.82188565213366    9.86821489854627   15.46611114011085
H        -2.29195726369542   10.85155246308658   15.55548408207834
H        -2.31525629478846   11.15478797335954   13.15418241935046
H         0.29731477696644    9.56148967284800   13.36665096063229
H         0.61963276124823   11.31510435714522   11.51083806990957
H        -1.05069678970174   10.99565357144645   10.99734502333336
H         0.51980721219036    9.69858171972550    9.60132379882554
H         1.26645321405533    8.99936799512392   11.04814075559701
H        -5.12143392158061   10.38185581305142   13.28180319953554
H        -6.37096603617284    9.82816026012655   12.15274705802963
H        -5.54008691297324    8.67485350463851   13.22108813851604
H        -5.25438154692463   11.30683862553901   10.38859699232965
H        -4.03827902161107   11.77303880829228   11.58328491514141
H        -3.53614930775684   11.34699735771683    9.95430287499794
H        -5.90877089115774    9.05911447376675    9.73449424364406
H        -6.24720204810483    7.43502512848928   11.58442317787706
H        -4.80936372512682    6.54897013635070   11.07385812344443
H        -7.36759187561350    6.94164087451226    9.46428498920135
H        -6.34342215758034    5.39111836586366    7.84357864302067
H        -4.88449199531955    5.29355452995505    8.83314276923610
H        -6.00050713049578    7.82529848824727    7.55296734953127
H        -4.60309252825060    6.90971921887523    6.97864658109343
H        -3.48741891210409    7.29591012048792    9.18663994907694
H        -2.96534443266483    9.66313326641768    8.89101927036281
H        -4.91405663783203    9.65769824997266    6.54112829446914
H        -5.23328089498344   10.47055045682049    8.07365596207994
H        -3.88311530508503   10.98245190684937    7.06606246453542
H        -1.85279902183890    7.84902640452387    7.55314437550514
H        -2.97752436779938    8.17466315734646    6.23489451408581
H        -1.86058783284139    9.42454257545249    6.76234056411776
H        -6.22094298923014    4.46488353601358   10.83404414970385
H        -7.63552049434600    5.37385405811941   11.36855387755647
H        -7.67395183941194    4.50294627310098    9.83438856507933

