67
CSD_code = GAYWAH | q = 0 | S = 0 | Stoichiometry = C29H31Cl2N4Rh | MND = 6
Rh        7.09865553897803    4.51266168145117    3.91028432315497
Cl        8.45238086619095    5.82011118254673    2.58434268059604
Cl        2.83845796195430   -1.30877895995314    3.09289239721431
N         4.28376144993187    0.65445287437101    2.26879331593917
N         5.32727019816998    2.54406018216429    1.52973958567635
N         5.41341130435358    5.37707223665534    1.58947555349526
N         4.63644158690096    6.28491992097864    3.36797043534043
C         4.32594867560330   -0.60122914175004    2.59561841801699
C         5.47968538141140   -1.40599197022700    2.57598362651108
H         5.42213102464623   -2.44327730536254    2.86149882496624
C         6.65414781110896   -0.81437920096056    2.19311866890265
H         7.57770741010062   -1.37644082297891    2.16881619673176
C         6.66128442714330    0.54787746185123    1.83854064716099
C         5.42358397536325    1.25642859906191    1.88352759395084
C         7.81212736683619    1.26749979333593    1.45438867074605
H         8.76279703070536    0.75468768242423    1.39062512697231
C         7.69877231473193    2.59908572444846    1.16016832320643
H         8.55450990321316    3.19002334968960    0.87375880598667
C         6.41768812753335    3.19687675229018    1.19999376023568
C         6.22406118165333    4.60262338088184    0.68825479485212
H         7.19735756759244    5.09099277243102    0.57065557618290
H         5.71480969067682    4.55789179255355   -0.27966310294240
C         5.55863679716483    5.39532389472912    2.92972115957056
C         4.42917335469369    6.23594951259813    1.19166908920001
H         4.16402753115378    6.37075083080064    0.16349261621307
C         3.93617724655971    6.80936074112323    2.31033574780023
H         3.17278469551644    7.54719558060235    2.44682819150468
C         4.30613237629512    6.62451567552360    4.70751855428192
C         3.07686910914476    6.19449337445242    5.21631481319346
C         2.73099038553220    6.56167187955239    6.50678823004664
H         1.78555624538994    6.23109138502164    6.91223612220084
C         3.57442623999500    7.33651511522022    7.29237321173171
C         4.79262567977423    7.73687434719722    6.76618339923898
H         5.46207052718319    8.33244952828560    7.37036815837310
C         5.17848458485061    7.39390175291275    5.47723609723893
C         2.16833003200521    5.32270254932422    4.40152680835147
H         1.44865022377684    4.82411725028616    5.04569509230222
H         2.73617302231560    4.56634954466485    3.86116978806674
H         1.61492201840056    5.91182227302203    3.67053828007406
C         3.17425397479634    7.70353564394350    8.68861924876490
H         3.83772984433666    8.46022116097164    9.09893654872226
H         3.21497799915160    6.82467194414369    9.33209990543911
H         2.15397148498699    8.08198281089717    8.70773157135872
C         6.50495304954543    7.81044776112686    4.93362140817476
H         6.39603253383236    8.33025983582691    3.98270192491447
H         7.12108243946345    6.91986009221967    4.74683259526526
H         7.02826392015156    8.45695845822206    5.63245952507040
C         7.00446107482552    1.69862262665078    5.18776958517372
H         6.60793213769512    0.76925364213748    4.77128895277636
H         6.97480358799610    1.59999567594564    6.27553876733636
C         6.09211766605650    2.84030745823040    4.78801783400808
H         5.25744302158044    2.54645958775084    4.15558186154239
C         5.90367519677531    3.97153179333301    5.57894836748361
H         4.92505443185490    4.44015521397403    5.54180146215083
C         6.63200209231096    4.26309323541381    6.87059958882420
H         6.22182572000896    3.62894550338103    7.66495571804044
H         6.41746678449880    5.29930804539844    7.14487708572052
C         8.15628561962490    4.06826207128468    6.77454848257514
H         8.64558234904094    4.75329891225136    7.47001927246413
H         8.42602847189292    3.05394568843741    7.07464181274583
C         8.67859916343722    4.32185003350361    5.37891548433741
H         9.28514041163175    5.22074546604915    5.26562392756093
C         8.82244601742832    3.31909306748770    4.44079053308384
H         9.56173282277025    3.45475894520684    3.65156590045042
C         8.45929347992527    1.87796934347226    4.71207300499061
H         9.15044003415526    1.47352993724812    5.46088409415539
H         8.60998380570856    1.30528282422587    3.79627595455294

