37
CSD_code = GAYXAF | q = 0 | S = 0 | Stoichiometry = C18H11MnO7 | MND = 6
Mn        6.39110649256656   11.68129018586860   15.34521940923867
C         7.96567252687183   12.32947748645057   14.77894662555875
O         8.95384755257433   12.79569682211754   14.44432942285128
C         7.19355258007644   10.92452510874079   16.77069545251127
O         7.67684885866654   10.37536142385777   17.64590238177838
C         6.41419116735738   10.12295221857164   14.43093054622049
O         6.43528160168441    9.13924421355154   13.85507688455888
C         5.57242876336413   12.57795974648902   14.01101513523332
O         5.06176112523212   13.15448631288584   13.17426530944130
C         4.80561053680747   11.49347470059333   16.19519743403053
O         3.83104328768741   11.43337459144774   16.77414744027209
C         6.14365152258760   13.64763237170763   16.45130995916171
O         6.05328735590186   13.51092590517097   17.84529760605856
O         4.91908839782947   14.16269128401373   16.00504040155089
C         7.16456460977431   13.37819160612151   18.62478064613820
C         6.91492852718547   13.17909103303331   19.98406499010837
C         7.96182928341794   13.02743776696179   20.86765215595576
C         9.27170374098078   13.06702172088118   20.41300478017472
C         9.52027182584897   13.26592754055019   19.06860781789010
C         8.47812451819184   13.42480084270161   18.16834235703613
C         4.60882982435153   15.48343228316380   16.27363041003417
C         3.44739332099342   15.95106736112414   15.66335184268290
C         3.04176668158217   17.25598913820651   15.85400269586385
C         3.78981167562825   18.11002442897557   16.64937764997644
C         4.94030942012174   17.64296680768593   17.25562453880580
C         5.35627546513081   16.33298022312719   17.07620876550256
H         6.94313289979854   14.37947885596141   16.20785787581127
H         5.88878089323044   13.14974085865418   20.31525243650132
H         7.75648371685723   12.87425414079781   21.91636927157553
H        10.09118008330782   12.94369829646179   21.10407359112811
H        10.53617970388240   13.29961255156720   18.70400536735353
H         8.70882279625579   13.58447752357003   17.12578211637522
H         2.88043575912599   15.27123091967872   15.04680095741512
H         2.13894571456250   17.60890472714390   15.37843340085298
H         3.47380591362488   19.13132963997239   16.79781662583270
H         5.52719664499175   18.29792384236037   17.88260250966075
H         6.24815521194929   15.99442551983686   17.58018318885820

