56
CSD_code = GAYZEO | q = 0 | S = 0 | Stoichiometry = C26H22ClIrN2O3S | MND = 6
C        -3.99216150028898    6.12700275640484    4.31018607274436
H        -4.11175397642325    5.53259024813411    3.38181102798156
C        -3.07528033099918    5.52790867697564    5.28268770684471
H        -5.75515328000414    3.28004934101950   12.59357330019169
C        -2.80867621532011    6.20264055936479    6.47628670840478
H        -3.30265285601093    7.15316716839325    6.62062935510193
C        -1.94786548593721    5.67470779880844    7.42463468860224
C        -1.34642459846955    4.42505229512288    7.15211761130619
C        -1.60959537379598    3.75099269157477    5.95806873063622
H        -1.14132459373433    2.80046696583386    5.75294760044774
C        -2.46656832933329    4.29742586391156    5.02858787613339
H        -2.67096013969467    3.77957572118918    4.10275717082358
C         0.42255896686608    4.41394930204153   10.28607285899695
H         0.47407432957255    5.09306606052489   11.12739003009171
C         1.16413165312361    3.24603515369799   10.29247888132847
H         1.78839073129922    3.01519143724193   11.14012903949452
C         1.08875396154809    2.39773089398032    9.19843018105323
H         1.65772389218542    1.48110644095633    9.16767481910530
C         0.26941526112811    2.75231261116535    8.14383285103272
H         0.19175418594798    2.11618723068756    7.27758034621027
C        -0.45448540519324    3.94074448726660    8.19745765861375
C        -4.78016370023010    3.31647471493760   12.06517434458102
C        -4.52009765853055    4.59433638416873   11.39638585557437
C        -3.32611649777619    4.77733687601684   10.69618675226801
H        -2.63381365693161    3.94786318703079   10.67360155406916
C        -3.03496120924457    5.97082675376409   10.05662228840875
C        -3.99731755550742    7.00233121699276   10.12787513861969
C        -5.19486387108458    6.82581632209532   10.82544318681497
H        -5.91973025526690    7.62423679750043   10.88134644976365
C        -5.45458124222184    5.63062268978576   11.45753389336908
H        -6.37750167325195    5.48936830595015   12.00136470855224
C        -1.94111519027050    9.28885971280740    8.25259592533504
H        -0.93920246961096    9.21100884389703    7.85086374574148
C        -2.70557766850038   10.42641809761267    8.07453560998136
H        -2.30641562939791   11.26425494201504    7.52675063819426
C        -3.98937699397853   10.45520833910195    8.60171607345625
H        -4.61937286851488   11.32200222607068    8.47340961463957
C        -4.45224430565819    9.34876181995935    9.28841417405604
H        -5.44937356351395    9.34156708909600    9.69700392900499
C        -3.63100365717330    8.23274570593362    9.43889280095294
C        -1.77195876880281    8.43927391887352   12.28766690438565
H        -2.46900108732309    7.66671859215149   12.59535551280980
H        -2.28772284517057    9.20280436443595   11.71705676429783
H        -1.28586301044806    8.86397519240029   13.15792216532422
C         0.50108675218429    9.15498433275862   10.96315112073676
H         0.96923098211891    9.43321660005284   11.89972128718709
H        -0.14827820303570    9.93817396777857   10.58990657848477
H         1.24937092473526    8.90882233676272   10.21565237620311
Cl        0.72722515510487    7.38807465048251    8.20785131596027
Ir       -1.32645769989852    6.52200326518131    9.14730406164573
N        -0.36508345954215    4.76140361395169    9.27236230298613
N        -2.38105866090158    8.22386309606467    8.91832559082905
O        -4.58870968711129    7.16485285576276    4.45803699974203
O        -4.03747686757407    2.36713152909998   12.07422866667473
O         0.28694816496812    6.82538837900330   12.16747210494634
S        -0.48542291908879    7.64676957621283   11.23683504925923

