53
CSD_code = GAZHUK | q = 0 | S = 0 | Stoichiometry = C22H26Cl2N2Pd | MND = 4
Pd        0.00081659814576   -0.00014052360537    0.00002156645055
Cl        2.17047934859168   -0.15701448215413    0.79549431617873
N         0.13847558501876    1.99554395676362   -0.16875484002036
C        -0.43519795008283    2.80768991842579    0.72322919255393
C        -0.38136213140529    4.18854713908658    0.58106100044366
C         0.25514063557612    4.73303353675466   -0.51874076651525
C         0.83130748303856    3.87846336339338   -1.44170866631498
C         0.76665692996929    2.50743100918274   -1.23353038530228
C         1.38327142122837    1.51940254143911   -2.18578840199499
C         2.08951316043164    2.12467632108938   -3.35642747413645
C         1.71706286137049    1.94202762500505   -4.60912320550766
C        -1.13712479785436    2.19027083543772    1.89875451911532
C        -0.14424648418312    1.67581919876168    2.90621645638616
C        -0.27306317260639    1.83267272363495    4.20985046591814
H        -0.84486818373679    4.81871702677209    1.32334082847044
H         0.29755305343569    5.80245051233386   -0.65821960498602
H         1.31942991533761    4.26184451382917   -2.32267130846742
H         0.58721449424937    0.84568095539437   -2.54440320931947
H         2.11133882226908    0.93341954624809   -1.60184067215570
H         2.96795094671915    2.71242001969252   -3.12252930773666
H         2.25806947057613    2.37082290191462   -5.43514820011985
H         0.85370033623614    1.34776890932803   -4.86010088956446
H        -1.74561777167129    1.35130933023514    1.52688674387240
H        -1.80198274536766    2.91888312166684    2.36536549249621
H         0.72016804314928    1.16218287432143    2.49260081109512
H         0.45605984609097    1.44716882316705    4.90183139649548
H        -1.11334473135507    2.35193595297176    4.64288567418692
Cl       -2.16960447743371    0.15776909943690   -0.79431759400835
N        -0.13883474715489   -1.99565362287135    0.16849928572558
C         0.43510024275158   -2.80775341509033   -0.72332414703958
C        -0.76673650030309   -2.50751396101487    1.23345224660246
C         0.38150975220379   -4.18859112212464   -0.58103846410978
C         1.13692072303936   -2.19034433868198   -1.89889675215218
C        -0.83118573326227   -3.87854098243132    1.44172318245317
C        -1.38325190916263   -1.51947514509993    2.18578236880481
C        -0.25498364090016   -4.73308946171657    0.51875863966857
H         0.84499917383902   -4.81873943693729   -1.32334594023083
C         0.14356769695022   -1.67669602352208   -2.90628955026560
H         1.74530775864413   -1.35120921634464   -1.52724327529303
H         1.80187281205638   -2.91894309870822   -2.36538946443971
H        -1.31924906271248   -4.26193609654576    2.32271036504047
C        -2.08975732563812   -2.12438482456655    3.35645180147080
H        -0.58715529773328   -0.84580064209598    2.54438585057502
H        -2.11124149777067   -0.93344848690974    1.60178221890275
H        -0.29736404110639   -5.80250654831737    0.65822935050078
C         0.27197095064423   -1.83430066694536   -4.20984401989881
H        -0.72010972992685   -1.16179377811540   -2.49275297893546
C        -1.71763884967442   -1.94133312621335    4.60919260792994
H        -2.96780101729293   -2.71268315249608    3.12248389354794
H        -0.45570856126707   -1.44620781350422   -4.90189873872681
H         1.11378715199200   -2.35102974696593   -4.64297436342909
H        -2.25806205642610   -2.37099106018273    5.43515085506069
H        -0.85375279752379   -1.34783098312607    4.86016109072419

