55
CSD_code = GAZJAS | q = 0 | S = 0 | Stoichiometry = C27H14AuF10NS2 | MND = 4
Au        3.71840983669562    0.59562175117623    4.51408008342502
S         2.81623769402907    2.40047160481046    3.28234905103279
S         1.84866689030465    1.32910615606124    5.75841458059997
C         1.63345008036536    2.49458543825136    4.51968041770713
N         0.65798306865240    3.37160362699340    4.51906841669009
C         0.48847206229382    4.34738734912168    3.45576486222471
C        -0.33413708547877    3.43294313872358    5.57911741021165
C        -0.70782585037987    3.99792814333033    2.60590030364250
C        -1.82592882750644    4.81976716470873    2.57936241760807
C        -2.92646482122431    4.47650353392537    1.81253548158504
C        -2.91903824439585    3.30587523409908    1.07408566595800
C        -1.80610807792662    2.48137743027962    1.09787235329657
C        -0.70441995452101    2.82550958652712    1.85975900723880
C        -0.11782313658539    4.65518861226320    6.43620196484116
C         1.04009643173274    4.76859949430672    7.19624894089731
C         1.25931706410802    5.89505890517127    7.96807566350294
C         0.32352498428966    6.91633123085996    7.98784698144696
C        -0.83279896385413    6.80743480992718    7.23485656930024
C        -1.05117438589552    5.68217995564252    6.45817908450372
C         5.20623953839467    0.06078180796657    3.27386738568006
C         4.88969946611592   -0.40871655140925    2.00882424168467
C         5.86475425848210   -0.81322105815947    1.10226051247034
C         7.20475043726455   -0.75556808659131    1.47226366859738
C         7.54933868645762   -0.29614138413248    2.73924867268946
C         6.54593588057522    0.10097098960343    3.61851258073021
F         3.60358486211088   -0.47292331550207    1.64420731658347
F         5.52446243597822   -1.25302393208586   -0.10996278653537
F         8.15339687249194   -1.14066870388360    0.61887650201826
F         8.83130316489289   -0.24365514971535    3.10675771855495
F         6.89752649786809    0.52925517512197    4.84012506733233
C         4.37181492857517   -0.84926980989238    5.74698122977158
C         4.41981967301876   -2.18841321243898    5.40177842173081
C         4.88644518954622   -3.16293185221329    6.27932134815068
C         5.32715031556016   -2.78793350497750    7.54435943885199
C         5.29764083459251   -1.44692687493871    7.91416698708206
C         4.82458066435529   -0.50121531085857    7.00974554866422
F         4.01021893584520   -2.56703603365589    4.18177342217848
F         4.91681754616795   -4.44580164380494    5.91256819137644
F         5.77705469012955   -3.70872620653888    8.39653716933073
F         5.71888390754502   -1.07807428372444    9.12458385269573
F         4.80276605810975    0.78626148401627    7.37411200908740
H         0.35699008696440    5.32887480066142    3.92030177095069
H         1.39608980477298    4.35794420108544    2.84796189525313
H        -1.32215328546129    3.46178626786538    5.11069031677175
H        -0.25107392342781    2.52666158716593    6.18339529265335
H        -1.83144975139218    5.73647050769260    3.15227555928083
H        -3.79055908219830    5.12370163813317    1.79406241233742
H        -3.77817756150634    3.03750218498837    0.47821191719610
H        -1.79435420798902    1.56989265205339    0.51980855875031
H         0.16641046137367    2.18679541274830    1.87222802963125
H         1.76556559181325    3.96860836564693    7.18700922893260
H         2.16018186703046    5.97395262672808    8.55739052274801
H         0.49410546338408    7.79441319050874    8.59206683531980
H        -1.56634944782101    7.59960372633947    7.25007633320085
H        -1.95694962430087    5.59619713004963    5.87451357252650

