37
CSD_code = GAZLIF | q = 0 | S = 0 | Stoichiometry = C21H14AuN | MND = 2
Au       -0.21605062726969    1.97496772000766   10.84917214978820
N        -2.35784503879658   -0.08677992574151   10.14289865925791
C        -1.62790245085805    0.75370659005358   10.48889695877139
C        -3.23635638058318   -1.04625885936622    9.75664438002759
C        -2.95566269592514   -1.82359169313781    8.63459506296693
H        -2.04222341441428   -1.65706509904717    8.08402857361456
C        -3.85769886235746   -2.79636149449801    8.24847420473346
H        -3.64816902377335   -3.40297244353343    7.38083217256402
C        -5.02536845314115   -2.99395030976052    8.96938779325962
H        -5.72510005179349   -3.75558800091890    8.66148026782461
C        -5.29754139723813   -2.21644163253645   10.08459719571671
H        -6.20715026517530   -2.37172470284210   10.64424275377018
C        -4.40799639820249   -1.23895528864382   10.48662549036987
H        -4.60489411444404   -0.62487050655375   11.35231732709556
C         1.34511311718401    3.22757395613740   11.16221715546713
C         1.42120514936092    4.48497068900851   10.52506026260583
C         0.43130735855476    4.90453467574427    9.59776870273744
H        -0.38667814163539    4.22585852270865    9.38647250857477
C         0.48265459620838    6.11425434299505    8.97607135363193
H        -0.28799106083678    6.40137408558810    8.27381661243580
C         1.54059375999726    7.00688336420781    9.24064080614373
H         1.56513627321034    7.96502811613184    8.74063224559891
C         2.51680461900157    6.65397246738609   10.11883283578347
H         3.33684961340911    7.32642815750072   10.33291241992663
C         2.49368418854131    5.39906241612093   10.77961308699791
C         3.49481456444798    5.04064411963258   11.67426297102783
H         4.30529991835064    5.72987355670865   11.87321359713045
C         3.46992621236961    3.80782198238578   12.31506151617129
C         4.49214831142129    3.43439649126076   13.22474675099454
H         5.29271163435977    4.13886008753880   13.40738382352742
C         4.47259754072054    2.22768785079407   13.85104373429732
H         5.25551894434054    1.94994983596099   14.54282832053860
C         3.42046427417847    1.32520568519765   13.59667616260404
H         3.41439200885795    0.36635295179223   14.09675514323756
C         2.42325349582165    1.65693202291145   12.73170854086493
H         1.61925983427385    0.95527842766934   12.54288614057351
C         2.39159296183547    2.90304184113731   12.05200231936715

