99
CSD_code = GAZPIJ | q = 0 | S = 0 | Stoichiometry = C42H43BF10O2Zr | MND = 12
Zr       -1.60411688190231    3.33597524969436   10.81868914225450
O        -1.08035847439087    3.59960136608118   12.60576074206527
O        -0.27579803673304    1.79856916280439   10.38645845070859
C        -3.10874848099915    1.72151506809881    9.76432377093660
C        -3.82989825952218    2.94631752107714    9.72313215381995
C        -4.12788070523824    3.32809604621589   11.07230456609709
C        -3.62781098143500    2.31564934081075   11.93937054905024
C        -2.97926426108852    1.33699326592184   11.13463875326199
C        -2.69519736198102    0.86859412729820    8.59509591822990
H        -3.21278413108798   -0.09169554287408    8.63062611572203
H        -1.62225576758176    0.66347743904239    8.59991978652125
H        -2.95227283021920    1.34447365695214    7.65075633932409
C        -4.62293522709595    3.46262541332565    8.55194698714836
H        -4.21217425032143    3.13782073884414    7.60089287648050
H        -4.70447137375612    4.54728403692405    8.55111408770505
H        -5.63955006435803    3.06475113263401    8.62077889138788
C        -5.15993221003363    4.36595996247427   11.42775873589397
H        -6.12879855072874    4.06488386747997   11.02180658881615
H        -4.92527533923245    5.34777627863144   11.01699760708007
H        -5.27008159511603    4.45617045773835   12.50480722868808
C        -3.99912558339413    2.10507857124679   13.38127837304405
H        -4.25941556693363    3.03597386998385   13.87728818528747
H        -3.19276338429343    1.63862088487700   13.94483019328809
H        -4.86694245988387    1.44233328032541   13.43093836822121
C        -2.52003477875689   -0.00921493044843   11.61928243932123
H        -3.35824759243442   -0.71121963242172   11.60501292140537
H        -2.15017223767248    0.03693003636764   12.64324651799693
H        -1.73964572155987   -0.40998512637167   10.97660619353088
C        -1.30231790940662    4.67497938329431    8.70874424359381
C        -0.03566534524924    4.12320217456174    9.04954158709863
C         0.38112221280999    4.70713566512647   10.28129571241343
C        -0.61987675781661    5.62231557658986   10.69501343159807
C        -1.68430165886669    5.58695345248776    9.74208849279131
C        -1.85695010666654    4.59798164280460    7.31212790305955
H        -1.15306697751580    5.07690001804904    6.62690600811547
H        -2.80482124848495    5.11980494603017    7.22190165284134
H        -1.98035493055796    3.56833210925180    6.97623599595568
C         0.79758128055975    3.31174478864087    8.09891432004877
H         0.21116503688179    2.52540772223839    7.62264282649156
H         1.64555257376610    2.85330309497857    8.60006588408326
H         1.18672137547587    3.96046808179537    7.31009476653732
C         1.67704119838165    4.52157706336187   11.01718006358022
H         2.34420743944649    3.85026338116023   10.48683120661064
H         1.49609679194054    4.13346995851595   12.02461398079507
H         2.18510739728275    5.48220111807595   11.12170837624902
C        -0.41355223832896    6.61597791407502   11.80381463997007
H        -0.20586057224880    6.11876001865458   12.75235740613521
H        -1.27406793560470    7.27020552092411   11.91938482939606
H         0.44908515680587    7.24260538631011   11.56549086484725
C        -2.77159999586255    6.62763117314192    9.65622115589540
H        -2.36580651473736    7.54665445939794    9.22521523351611
H        -3.17153059884613    6.87634903574470   10.64021746634476
H        -3.59244506680491    6.30575465724923    9.01870068082918
C        -1.29348286960955    3.54284257789132   13.92521716471452
C        -0.66992651461052    2.54073318251152   14.69395163496120
C        -0.86110559752091    2.50567614245622   16.06246409355431
H        -0.37686943335270    1.72983082321627   16.63841584109932
C        -1.66012824999152    3.43899033527459   16.71189060904399
C        -2.28157914030596    4.41223818211271   15.94663383667112
H        -2.91765691872831    5.14271220944382   16.42745210418245
C        -2.11794472455085    4.47926254426774   14.57090237891631
C         0.18651156094134    1.52647742619339   13.99567052510865
H         0.24082145455439    0.60167000462080   14.56458717265261
H         1.20325216915727    1.90376195195242   13.87418999773270
H        -0.22516141785881    1.32184663083324   13.00340208268041
C        -1.83915891157174    3.37902736787396   18.19880072575068
H        -2.55503305893547    4.12463398932728   18.53480076388313
H        -0.88983099649576    3.55981572536033   18.70199863585838
H        -2.19231027240056    2.39437332846051   18.50145691878430
C        -2.83039138384078    5.53870760155701   13.77659517630699
H        -2.78124685029077    5.29868321698789   12.70598916498117
H        -2.37263302579678    6.51273902373970   13.94905913718759
H        -3.87130769215616    5.61167995542174   14.08983355616674
B         1.28578449872305   -0.05841494735304    9.63459085921617
H         0.99106675342309    0.08551265478944    8.49486655894122
C         0.81319851611079    1.21023870554728   10.51637463724292
H         1.46364363411644    1.55850913484650   11.34161833072033
C         0.46512803123756   -1.30711196607763   10.29036041063169
F         1.49637877622956   -0.93364504381606   12.38071269369757
C         0.65822410344160   -1.66453037026639   11.61993177257351
F         0.22397721404011   -3.02470642229668   13.51060343785820
C         0.01696746377887   -2.74127250092162   12.21737729234457
F        -1.49402173515051   -4.55216098537103   12.02495370373789
C        -0.85800075072471   -3.51721238994003   11.46600036512067
F        -1.92417298365820   -3.92563225338310    9.39919265058455
C        -1.07363850826295   -3.19567537070059   10.13178707679888
F        -0.67529893439765   -1.81991080687029    8.28614071588239
C        -0.41652569517887   -2.10509123004140    9.57074213139994
C         2.87990962462096   -0.36777824959307    9.76918897507700
F         2.57984597960248   -2.71445671108207    9.56038146506546
C         3.40044427852306   -1.65841947228988    9.70997976711580
F         5.18771020450393   -3.20973938358678    9.73166925034649
C         4.75964084627575   -1.94243702047108    9.78785333615533
F         6.98764929820698   -1.16297992849578   10.00128475716342
C         5.67714789682473   -0.90837911477718    9.92195911721329
F         6.06217329646387    1.42096342055676   10.07447724886404
C         5.20504532288473    0.39639952280123    9.96155710280062
F         3.44766013101098    1.92388128602599    9.89882968998726
C         3.83833411200436    0.63161333777682    9.88078392156792

