110
CSD_code = GAZPOP | q = 0 | S = 0 | Stoichiometry = C47H48BF10NO2Zr | MND = 12
Zr        0.85893705004453    3.68127683497582   11.30606000375993
O        -0.73777944952763    4.35961665986503   10.49670816633706
O         1.68299156243974    2.40791686539094   10.10549166898359
B         2.90232360128428    1.00675934897669    8.23455651310332
C        -0.65448695635043    3.27191041816339   13.55115511437327
C        -1.06997170357943    2.37568319872157   12.53879792772081
C         0.04028480950568    1.55115148989800   12.20150781002674
C         1.14974825521303    1.95115049287362   13.00806082691335
C         0.71108982933408    3.00750780333257   13.85553378839858
C        -1.55485132317037    4.10637791297034   14.41874652730459
H        -1.66468840098420    3.63024013960881   15.39651773602571
H        -2.54489429892919    4.19469511766730   13.98141772732813
H        -1.15671077472895    5.10620609763896   14.58594306321295
C        -2.48746860358615    2.13422322718500   12.09693008787203
H        -2.53555010873646    1.78619772616108   11.06608776447542
H        -3.08835862216685    3.03781836013405   12.16969343424077
H        -2.94668826865448    1.37156417611498   12.73185543582420
C        -0.01746103224191    0.28668085542271   11.39024128908110
H        -0.13395701496564   -0.57437305049397   12.05472756686836
H         0.90097083186469    0.15000171904144   10.82388006027180
H        -0.86683442680394    0.29593362515101   10.70898631035740
C         2.47868400980757    1.24094953109515   13.04516281777640
H         3.06737489873539    1.46847437571212   12.15020822272706
H         2.32786561568388    0.16089431256838   13.08280187225960
H         3.05378416926867    1.52683023245190   13.92478293926351
C         1.31837893675383    3.37294978765188   15.18482472003901
H         0.82220933567953    2.78766678606922   15.96492984876492
H         1.17237109557021    4.42108556182483   15.43680448101612
H         2.37883461936683    3.14442986236978   15.23186778642325
C         1.51042582624291    5.97453254863804   12.29083887520749
C         1.21771213488065    6.25064136750899   10.93232545358529
C         2.13779875788275    5.54154544570399   10.11518109613005
C         3.04390567704132    4.85801484355296   10.97263998083582
C         2.65271212305724    5.11454170188312   12.31978581153576
C         0.98068374750481    6.76171505048353   13.46174853570016
H         1.54411047130859    7.69366905087709   13.56354014243278
H         1.08443668943533    6.21508583727771   14.39606000513241
H        -0.06795560565106    7.02527117179552   13.33291527560083
C         0.25998510153727    7.27546504246342   10.39441783174824
H         0.80561917486732    8.00024059981012    9.78608688822590
H        -0.22307354199571    7.81993039978558   11.20081532671917
H        -0.50576825367468    6.82305190597392    9.76289738143832
C         2.19928603085724    5.72257750041488    8.62187701379578
H         3.10720305036462    5.29780158511339    8.19852991672564
H         2.19246607932194    6.78808669985214    8.38268211227708
H         1.33478888014017    5.26957884029245    8.12849321134435
C         4.37410795548720    4.24397580082362   10.63190676658034
H         5.16704085533164    4.76693948122978   11.17244753004875
H         4.59354553811218    4.33202810770934    9.57099053830482
H         4.41837428576596    3.19029052495350   10.91692931737613
C         3.59868965125813    4.91382992963003   13.47442887030384
H         3.91950657082995    3.87590619788320   13.56992725641231
H         3.16160204195584    5.24141616142347   14.41256313260953
H         4.49698722048409    5.51643734994620   13.30890240953638
C        -1.98412272460982    4.42383877266664   10.03119782895576
C        -2.93860758433096    5.29696311162973   10.59209701413324
C        -4.21145154711218    5.36462975878275   10.05268217022222
H        -4.92553715548154    6.04490092195301   10.49726163114672
C        -4.59874229729748    4.58871541819123    8.96927634704249
C        -3.66770157579463    3.71050124727147    8.43715329039621
H        -3.94323557416707    3.07879411157667    7.60331440523720
C        -2.38591462791604    3.61712876466570    8.94967876762524
C        -2.58345314168926    6.14064039378177   11.78152578222844
H        -2.54602542444162    7.19459602981589   11.50653376604779
H        -1.60989676081282    5.83023858518209   12.16110105377776
H        -3.33299681576859    6.03218064115041   12.56494509602633
C        -5.98102607323951    4.70651290270730    8.39914658284898
H        -6.72751859099108    4.69093075953259    9.19163446259627
H        -6.18653636321451    3.89224353580876    7.70861752606064
H        -6.08856491071032    5.64774645476087    7.85929510933685
C        -1.39101577823214    2.64203744536478    8.39292774347850
H        -0.88655122318762    3.06336124650642    7.52075263752788
H        -1.88929550188176    1.72443173921249    8.08115075294747
H        -0.65123482608097    2.43899855579912    9.17983591870656
C         2.16265417069953    2.40706017587365    8.77821294649291
H         2.93515368427258    3.18103071152759    8.67263685731673
H         1.34206298435609    2.70590255646008    8.11372904129948
C         3.32388385650978    1.11192819165059    6.64020745609401
F         1.31998406483648    2.21477515518577    5.99557223887326
C         2.53092621290208    1.72592659397379    5.67441779678315
F         2.07022921355080    2.44841054415643    3.47239392743799
C         2.88993524021620    1.83672148080272    4.33459188091155
F         4.45150736407354    1.39526495515494    2.61086376460486
C         4.08952124877311    1.29718418808700    3.89129327492880
F         6.02106592963497    0.03923081818530    4.40724727061933
C         4.88585091086753    0.62150225168356    4.80627193519109
F         5.28429177221006   -0.20051397987931    6.93742215310507
C         4.48701553613003    0.53230986194966    6.13518007478221
C         4.19591194354086    0.79782656846236    9.19037657992717
F         5.38029618763024    2.46070442469025    7.99243418073295
C         5.33397329461610    1.58629371299290    9.01397798471975
F         7.50973393671540    2.30432015456353    9.59986702511648
C         6.44838983938599    1.52705252831166    9.83962501594353
F         7.50954312937579    0.59568977040366   11.74354308461650
C         6.45103891006311    0.66469089100997   10.93038026371435
F         5.29168852254910   -0.94643359226289   12.21466329003315
C         5.32773461722056   -0.11597559554049   11.16380962046929
F         3.18328067967330   -0.82559251748632   10.59704635504090
C         4.23676653802074   -0.03397504138843   10.30474372681248
N         1.99813180760619   -0.28488673698427    8.23090216558455
C         0.67158912330723   -0.19896526539464    8.27858426025220
H         0.26324440798381    0.78997488902753    8.38408589958757
C        -0.14049848015140   -1.31436891777953    8.19248326506214
H        -1.21129748208969   -1.19939065958654    8.23493086263639
C         0.43830058494213   -2.56553508344054    8.05878089235148
H        -0.16737190856409   -3.45554672709550    7.99599556823491
C         1.82513965292250   -2.64336007758891    8.00387709158271
H         2.32529854841368   -3.59187353347543    7.89686961436979
C         2.56720642734276   -1.48609386603090    8.08647743764565
H         3.64400792890070   -1.51547184011397    8.04166512041460

