76
CSD_code = GAZQIK | q = 0 | S = 0 | Stoichiometry = C30H42O3Zr | MND = 12
Zr        1.73695022684586   11.99121658675549    4.76333062601382
O         3.26994511130208   11.15165234482728    4.01293052493947
C         0.86612566989777    9.84360112989462    3.88141482645428
C         0.22234663557157    9.91711732592005    5.14712067117710
C        -0.77993324897022   10.91819207121801    5.07969452322006
C        -0.69895212152584   11.53489727339614    3.81254808421468
C         0.31483353645261   10.86938919927906    3.04960504366167
C         1.74933024609027    8.70082902830853    3.45619899155287
H         1.13594751000730    7.81243652115055    3.27977541912622
H         2.48145624960265    8.45224869933170    4.22530071499938
H         2.28964011541234    8.92699507149142    2.54050398334772
C         0.45362545415006    8.95051789100354    6.27688566195808
H        -0.06665083213375    8.00759312691000    6.08760307123830
H         0.08399016233655    9.35056748501365    7.22119634660051
H         1.51659584905608    8.72857336174764    6.39241884326188
C        -1.87223125105355   11.16645030993646    6.08130673110096
H        -2.04873871657077   12.23100316980099    6.22471708927729
H        -1.63020286764767   10.73164411116850    7.04789226889372
H        -2.80276269309948   10.71418398431945    5.73032696644486
C        -1.78150072878924   12.39745770955433    3.22189030283914
H        -2.58988432453937   11.76134769729081    2.84955971665270
H        -1.41908204364379   12.98539965880715    2.38130231116970
H        -2.20992850218129   13.06619433593455    3.96466639768595
C         0.34291249291455   10.88916742089403    1.54056156490813
H         1.04571288602062   10.15491968587564    1.15812408653535
H         0.59748791851595   11.86461862785192    1.12758016014489
H        -0.64789464904278   10.62323872973916    1.16283635809553
C         1.85752488028540   14.10092166674899    3.42498235056728
C         1.18865868638542   14.43713128030102    4.64794484961274
C         2.13887790879860   14.36643077524220    5.69779280260636
C         3.38240211592459   13.96817628250836    5.14298448888155
C         3.23033121783144   13.87250775944836    3.73953648232874
C         1.33837238479709   14.40408779531278    2.04080566743014
H         1.50773201194840   15.45891898677536    1.80526207760346
H         0.26871975833752   14.21913236720942    1.95836209641457
H         1.85215088868685   13.81361973830665    1.28267337341808
C        -0.19101436200952   15.02200601713203    4.79700511707289
H        -0.78168415392994   14.46502116800201    5.52699577158188
H        -0.71910861271027   15.03330014763164    3.84691168203266
H        -0.11740206847812   16.05399130796465    5.14824706623477
C         1.94965019210538   14.87200230527506    7.10175062519013
H         2.31480207284399   15.90039434339984    7.17269444788584
H         2.51026259876645   14.27379790334537    7.82234961388290
H         0.90002147135270   14.86343593846740    7.38805193938654
C         4.68365225322469   13.84758379668347    5.88535604999281
H         5.36919847358487   13.19289642844277    5.34826940600181
H         4.52674081451670   13.44485128737533    6.88739576422101
H         5.16225348874074   14.82515537237680    5.99004188170846
C         4.39010614990969   13.82354229431888    2.78439567401195
H         5.03711728642153   14.68422497150554    2.96802263319728
H         4.05422339981933   13.87610130033004    1.75271045822608
H         4.99235161689553   12.92479730833501    2.91362423417584
C         4.33844553258913   10.47475675664500    3.60218645502767
C         5.19658386667159    9.83306486319778    4.52251309893158
C         6.30846900351094    9.14541462603735    4.07232509203815
H         6.95225591301757    8.66439788713370    4.79671753606140
C         6.62294136251647    9.05383603069032    2.72308063385559
C         5.77549141367750    9.67460010660045    1.82056310935642
H         5.98995334404318    9.61833150295093    0.76158462915890
C         4.65190727357595   10.37365896547830    2.23031732038331
C         4.88373582264539    9.89914460335509    5.98628974187001
H         5.63851664779729    9.37276737417476    6.56633129345667
H         3.90703679083071    9.45287427759765    6.18617244993918
H         4.83362374047741   10.93643260507906    6.31896274541551
C         7.82575365112899    8.28496803046672    2.26207069855708
H         8.65005604662502    8.40014106125558    2.96298978603127
H         8.14908340255022    8.62406297785992    1.28053805931249
H         7.59117436318445    7.22177221270946    2.19257624637930
C         3.76864327073016   11.02257363560991    1.20207699575501
H         4.34507610569846   11.70634708530252    0.57969942353727
H         2.97161482186259   11.57011938545823    1.70681360152779
H         3.33467474432275   10.27044939756848    0.54209093331522
C         1.44363864392212   11.84934132112945    7.28019566441825
H         1.36467561475906   11.72691985165486    8.38046579348060
O         2.44351858501388   11.37638164622351    6.68920706205506
O         0.55665147989022   12.44346269604136    6.65187379094606

