69
CSD_code = GAZXAJ | q = -1 | S = 0 | Stoichiometry = C26H36Cl4N2Nb(1-) | MND = 6
Nb        1.54371306467893    2.31009392842539    8.71905428651982
Cl        0.84891799310139    1.18760724158321   10.81798215907764
Cl        2.56399387163419    3.82568361600836   10.15652324926210
Cl        2.90624804051068    3.38903131029996    6.94680309954138
Cl        3.02133128659589    0.52935705080988    8.51487019054136
N        -0.05541865394337    3.57317145482989    8.52078721094197
N         0.26509513891589    1.37559714396691    7.42023419501472
C        -1.04607659603480    3.22970903787084    7.65610427496783
C        -0.87007138532339    2.02616866692157    7.05259364030823
C        -0.30581746980672    4.77863217707364    9.23112274142204
C        -1.08208759433699    4.74197965021682   10.39827440434478
C        -1.31876804308110    5.92590844172083   11.08319731298015
C        -0.81107568663025    7.12724758969891   10.62962016674494
C        -0.07533156850435    7.15849042798129    9.46192282613709
C         0.17541108471884    5.99923323221335    8.74060754840792
C        -1.30304759436267    3.20539946940278   12.36830176039434
C        -3.19969078398019    3.46291558598243   10.72655730370572
C        -1.67924895619472    3.45050605875590   10.90713881287153
C         2.36172143023581    6.59799550974194    7.69635645536091
C         0.20931962981954    6.94677246298122    6.42452247944907
C         0.94669232651477    6.07614970988811    7.44518047812771
C         0.38849457790900    0.07738002402388    6.85406005586654
C         1.04144629292893   -0.09644694739244    5.62708722547604
C         1.14975924832456   -1.37567958862500    5.09899308122904
C         0.60410013973560   -2.46462181777314    5.74887883736747
C        -0.07053598906639   -2.27953634212291    6.93927527815273
C        -0.19415395695874   -1.01833140810112    7.50586346123730
C        -0.38806756708869   -1.74971040778479    9.89200566627483
C        -2.44934988048466   -1.13139865497229    8.57353361290937
C        -0.96105317846469   -0.85052925240495    8.79652211044126
C         3.13978987481677    0.91560204381880    4.74013697170965
C         0.95986732155820    1.23104927586777    3.50527251191134
C         1.62502814447428    1.07505356680940    4.87495256848244
H        -1.89290989771258    3.88649948094875    7.49574634855050
H        -1.55607371284872    1.58254849459559    6.34060014724743
H        -1.91218410240835    5.90828669045877   11.98562581773537
H        -0.99704369821189    8.03916468675235   11.18080981270597
H         0.30721715194660    8.10178001119487    9.10018905118064
H        -1.75761417881876    3.94012816031991   13.03038349921911
H        -0.22273727821162    3.25061104809829   12.47653457033208
H        -1.62954450538893    2.21316889903139   12.67022692928374
H        -3.45731899891509    3.58459877020071    9.67621524200603
H        -3.65023996968579    4.27981718006316   11.28812860244335
H        -3.62382567789606    2.52480098911745   11.07869487031319
H        -1.27330853078882    2.61928380867980   10.32296187983939
H         2.85272373900195    5.96766266931989    8.43421661633307
H         2.34870382475438    7.62302508036814    8.06333092832264
H         2.93943739799832    6.55721623981938    6.77619936319349
H         0.13058598309342    7.97663362325682    6.76821798452575
H        -0.79545016203005    6.56399164815935    6.25384246319850
H         0.74670910231888    6.93957052990183    5.47869144862001
H         1.03614809462232    5.06978808567658    7.02572186602757
H         1.66615219275140   -1.52073851553156    4.16126789383676
H         0.69783432236859   -3.45526890256781    5.32481654799122
H        -0.51159256244388   -3.13094762637663    7.43681318694958
H         0.67656508662641   -1.55719660816738    9.99705934797248
H        -0.53680356627339   -2.80406087713768    9.66586809867454
H        -0.86596360245004   -1.52312988365640   10.84195979683227
H        -2.99733686599414   -0.98929630795780    9.50271478044576
H        -2.60595581944823   -2.15324607788568    8.23177957167778
H        -2.85598548401578   -0.45267540611388    7.82609180949022
H        -0.85824455331347    0.18400487217316    9.13720188146770
H         3.39632090434995    0.05400348284634    4.12581760671711
H         3.57747020568045    0.78548911334450    5.72731987792643
H         3.56769737335191    1.81017479410546    4.29447558268972
H        -0.11678737789773    1.34738134028546    3.61699153340960
H         1.14781254422932    0.36417479511885    2.87429639267143
H         1.35205844511139    2.11331556929120    3.00404651680439
H         1.44004961434355    1.99025988456031    5.44490615617075

