60
CSD_code = GAZYIS | q = 0 | S = 0 | Stoichiometry = C22H31IrN2O4 | MND = 6
Ir        2.70081439941438    3.46833763091126    6.86409618998478
O        -0.38209415047851    1.10251894313107    8.22165703006678
O         3.85401308586338    3.48623371772242    2.91245886546586
O         3.27899554331724    5.27091175414231    8.12905501841389
O         1.52477380246135    5.43800613914051    6.82758472352244
N         1.30122991835377    2.57467954929477    8.10685500801665
N         3.68071939329503    3.93898084295005    5.09856707067751
C         1.87475966145732    2.21794566868887    5.64374105793936
C         0.82029024631343    1.42002506705399    6.09728842993187
C         0.16098152706422    0.56868127913861    5.20264894237075
C         0.59175938803938    0.56557897990767    3.87833539793309
H         0.09008654977451   -0.09287439057022    3.18252915565150
C         1.61337649183101    1.37671956016758    3.39076019717607
C         2.25743254093637    2.22522914757287    4.29906851962016
C        -0.97099322567161   -0.29830282017602    5.65073943812419
H        -1.36352160642574   -0.88745848897400    4.82586985491776
H        -1.77106059615538    0.31393632126780    6.06315255634897
H        -0.63997040415947   -0.96897891072358    6.44174304702787
C         2.00285061961231    1.34867109271492    1.94808785986566
H         1.38527671134559    0.65037480593663    1.38900091594463
H         3.04738105653286    1.05831673895667    1.84802532698845
H         1.90270327408247    2.34117538508138    1.51267659453869
C         0.57239797883776    1.69077758297564    7.49086965655276
C        -0.30877047218032    1.65120711501804    9.53382116548237
H        -0.09976086919970    0.83929834894596   10.23667737265270
H        -1.27699535232201    2.09704443637485    9.77712620844120
C         0.83363600768897    2.70111721016080    9.48333787492108
C         1.96441064919989    2.37423986144441   10.45660924354119
H         2.36405566433254    1.38224049675983   10.25957415167032
H         1.60225418664286    2.42031769349502   11.48109349431178
H         2.76063348985012    3.10183042169405   10.32761526346789
C         0.31241019483126    4.11542638766730    9.73942669395862
H         1.13892943679468    4.81801051242851    9.69268636609843
H        -0.14497606186026    4.17357319513122   10.72503246129476
H        -0.41864592279172    4.39385055185569    8.98332880137294
C         3.27978395959811    3.21945456515384    4.09172547827370
C         4.80300966591083    4.52574102512806    3.13041570848192
H         4.57158307710631    5.35301959582898    2.45485455363563
H         5.79955659800179    4.13821300484845    2.89697339536085
C         4.65560707525729    4.91652861542009    4.62528208384954
C         5.96462183803121    4.77990143708883    5.39822655215046
H         5.77526215430852    4.99363140907955    6.44662278405430
H         6.70063608434616    5.48447602113300    5.01778257720679
H         6.35567087288712    3.76878598267704    5.31240038622466
C         4.09895137443243    6.33298165824710    4.77989305148585
H         3.11743544120975    6.40808249829176    4.31648236471410
H         4.77315691722236    7.05227312394322    4.31936236907109
H         3.99811789751201    6.57065383915830    5.83441027016365
C         2.31679727577802    5.92942430068800    7.66224556755660
C         2.10608131581249    7.36072048648921    8.12941103763674
H         2.96648170251104    7.69738299092472    8.70153649438736
H         1.21551417063796    7.40463975975093    8.75389152291626
H         1.94736768270888    8.00675906749488    7.26910880797030
C         4.08044232027832    1.95066859990556    7.26974653182639
H         3.57415816606769    1.06742444381141    7.67258431114892
H         4.58876484479080    1.62733366858392    6.35545155804971
C         5.12803221991087    2.41360807374570    8.27381630599752
H         5.71448655645723    3.23824096281953    7.88090957674786
H         5.81287471675896    1.59414616928330    8.50496340394987
H         4.66932291583194    2.73736687322071    9.20316335284754

