43
CSD_code = GEBBUK | q = 0 | S = 0 | Stoichiometry = C23H17MnO2 | MND = 8
Mn        2.26867990744244    1.31337183805966    2.44394317923271
C         2.02838728474823   -0.07582370129128    1.37535332819294
O         1.85180370868551   -0.96147681966304    0.65082493713345
C         3.95978902383034    1.45143970465669    1.94807667291177
O         5.05375274954084    1.58908969718549    1.59547742662976
C         1.38932500467283    2.83533263234950    3.69291168851991
C         2.10346484402269    3.45433975695900    2.64320871014038
C         1.51472187806678    3.07103571625317    1.40924024145852
C         0.44258294560545    2.19980307745156    1.71266744827605
C         0.36899170417760    2.04727321016253    3.11918004638929
C         1.80234614444517    3.68135536448734    0.07055929691742
C         2.68778001501282    0.20315593144739    3.92295893386677
C         2.59007225766403   -0.18038708694204    5.30166133100342
C         3.42454139045794   -0.88565617537838    4.48679742006174
C         2.05818278108648    0.01087285637688    6.60905393977671
C         2.72653611489589   -0.50436801706029    7.72598066218592
C         2.21707530731532   -0.30476316316288    8.99282612436026
C         1.03255286118276    0.39587670522290    9.16655658007747
C         0.35940542812084    0.90442769575965    8.06610680322255
C         0.86820145910675    0.72134683662662    6.79616128023520
C         4.34305015704337   -1.92781051689108    4.19345016192180
C         4.75942656155977   -2.86221053005886    5.14724213724384
C         5.65557731272173   -3.85085050005263    4.79312566628356
C         6.14260948904945   -3.91872135443796    3.49579622094892
C         5.72908794998416   -2.99849302152361    2.54246831630951
C         4.83251781046945   -2.00664059293502    2.88266244473080
H         1.51621967506564    3.05007408935846    4.74659745189960
H         2.85419984148361    4.22579138621533    2.76311878289207
H        -0.29105633360480    1.83950415782972    1.00205491394706
H        -0.44573100197503    1.56924979126289    3.64884377157450
H         4.37007016411301   -2.81123446068462    6.15326422308705
H         5.97847325148815   -4.57389804638612    5.52774417662231
H         6.84488949641645   -4.69394652151890    3.22728068641715
H         6.10794273395970   -3.05973139464453    1.53370829116818
H         4.48527134585697   -1.27381063473738    2.16376720981049
H         3.65467031250152   -1.03793973115726    7.58550913342419
H         2.74124364016894   -0.69731884473593    9.85168415940429
H         0.63494168063736    0.54601154361144   10.15914218673881
H        -0.56375571765738    1.44824146516794    8.20351816834365
H         0.34488670533782    1.10635293644773    5.93538753338248
H         1.19276219980589    4.57950104051799   -0.06096262519875
H         1.56496067610588    2.98863761308499   -0.73559647879326
H         2.84994923948657    3.96669606649820   -0.01455258275148

