58
CSD_code = GEBFOI | q = 0 | S = 0 | Stoichiometry = C27H23N3OPS2Tc | MND = 5
Tc        0.57522523095244    1.00675705812229    4.14921186099776
P        -0.68456780660471    2.78040311495359    3.17621327146841
S         1.17263386163332    2.16489532227346    6.14118225087059
S         2.66803389267354    1.01875501469264    8.40978744770353
O        -0.89346075907042   -0.10990182947045    3.30714440170044
N         1.98790397797612    1.09339218755500    3.20927468820259
N         1.64118834245849   -0.45360124668836    6.51089183697102
N         0.95372272190228   -0.61744639638070    5.34872835119926
C         3.17692561718538   -0.67596812684060    8.81872367045541
C         1.80596265068736    0.75001795818722    6.93039924742082
C         0.62460426791606   -1.84877501336914    5.09054945490598
C        -0.19163690272862   -2.29374610241045    4.01802274860655
C        -0.33634592816523   -3.68064221980388    3.82113336133859
C        -1.15672452945366   -4.18601317896892    2.84737665404872
C        -1.88554472219679   -3.31099253736885    2.03752075821582
C        -1.78068560235819   -1.95526855437721    2.20691806102365
C        -0.92779007607095   -1.39892327755232    3.18561796735531
C        -2.00599421265891    3.19208727947174    4.34845927014081
C        -3.04261082452138    2.27649080094821    4.52283481792524
C        -4.00571998049036    2.49593255579020    5.48973908725850
C        -3.93221269416374    3.62050799361040    6.29730705906426
C        -2.89006763868757    4.52037965727448    6.14249160905624
C        -1.92282703141254    4.30708190722565    5.17652933312999
C         0.07566795774526    4.38009160337380    2.76788264089042
C         1.44866896795748    4.52701664850833    2.92632055289209
C         2.04794133910561    5.73676505338375    2.61983249078320
C         1.28222846389942    6.79370701773984    2.15565153424967
C        -0.08625548340751    6.64356582200667    1.98943907592230
C        -0.69240552563177    5.43876004235180    2.29142012566314
C        -1.55762470493712    2.37034686247322    1.63208418294191
C        -0.84625246366416    1.59883844554042    0.71655612943481
C        -1.42790612850359    1.24411678623869   -0.48634028131184
C        -2.71741275455462    1.65970931803010   -0.78177978425352
C        -3.42351027385175    2.43259053610816    0.12512037104449
C        -2.84804113139199    2.79083752862262    1.33211454821899
H         3.76304394958611   -1.07249451668687    7.99687008364200
H         2.29351976611151   -1.28353464649924    8.98238034665030
H         3.77201371518712   -0.60958547947621    9.72316930976965
H         0.97729163390259   -2.60262956611877    5.79402393102166
H         0.22779437434818   -4.34854311489446    4.45694117671114
H        -1.24480835605853   -5.25216933028897    2.70598132384741
H        -2.53622670278540   -3.70713444419555    1.27151424998754
H        -2.33520825576429   -1.26612622420109    1.58588240151499
H        -3.08298960442025    1.39438127615577    3.89539008375442
H        -4.81109741760535    1.78721019961422    5.61978348709451
H        -4.68335285292949    3.78934840471639    7.05476145787773
H        -2.82573025715791    5.38807037546408    6.78222404421672
H        -1.09838790272127    4.99727929012306    5.06385483529785
H         2.02573816942688    3.68312912374321    3.28487609861899
H         3.11372640681598    5.85430321842157    2.74386336066719
H         1.75027252117552    7.73794712782535    1.91928363462878
H        -0.68069985787000    7.46804966540460    1.62339597822372
H        -1.75906982125687    5.31761625877347    2.16136920093604
H         0.15362456830668    1.27151989175363    0.97925459836332
H        -0.88019588783558    0.63752780152174   -1.19211763380776
H        -3.17555113466644    1.37729636374271   -1.71835705207591
H        -4.42889813162806    2.75453323349470   -0.10544290715762
H        -3.40981903964693    3.38283706032459    2.04243919462571

