61
CSD_code = GEBFAW | q = 1 | S = 0 | Stoichiometry = C22H27F6N4OPd(1+) | MND = 4
C         3.83405515798623   12.30641180662230   18.26556599262205
C         3.95254193843937   11.54116569496878   19.42090210823832
H         3.46821153520265   10.57340604440227   19.48687095780203
C         4.70174715726232   11.97893582090995   20.50291301824998
H         4.77065641942514   11.37121123435083   21.39164389262019
C         5.36525865001929   13.19003795678779   20.43311916676413
H         5.95031185632851   13.54038995186865   21.26846497304111
C         5.30983316344144   13.94158273095572   19.27461462649048
H         5.87803623981978   14.85595904845036   19.20786221672660
C         4.55455632235672   13.49916929493440   18.19165660584915
C         4.79414153719180   13.62158389054997   15.80893620870544
C         5.47588252754755   14.01693839608603   13.45063633197033
C         5.49927877271716   12.69065477697369   13.02788186614237
H         5.41720465395576   11.89284423130681   13.74796080827783
C         5.65750553616930   12.39823328238274   11.68109370071155
C         5.82914345405592   13.39486123741881   10.73332614248861
H         5.95674864683669   13.15568434707497    9.68952256945146
C         5.84887851483992   14.71064134715088   11.17323600319021
C         5.66599296209905   15.02843221194982   12.50890563972015
H         5.67475544591202   16.06529621244725   12.81169830249827
C         5.56850223545795   10.95178559003326   11.26747946822157
C         6.03469786287809   15.85100679228197   10.20215610724251
C         0.15094342753615   11.19590126211062   16.29042683612637
H        -0.83720352548217   10.81645074467044   16.58770212840392
H         0.03502221443991   12.24626894949327   15.99935613539082
C         0.67202564112963   10.39473399050356   15.09547572977896
H         0.72050713601762    9.33474594875461   15.35404221698035
H        -0.02840577353984   10.49700758772606   14.25638112224912
C         0.59796188723038   12.07940122355875   18.46376787536936
H         0.59756975529978   13.09696444290822   18.06683967204699
H         1.25170876490650   12.05031375506301   19.33453392578810
H        -0.42031015473800   11.82207165864440   18.77726608714611
C         1.11324601404395    9.78761916488690   18.00122191896176
H         0.09984916340637    9.38874631243650   18.12273698879793
H         1.58414489329997    9.80792441802509   18.98184548932971
H         1.68907840683125    9.11735233229846   17.35961105651905
C         2.85994561895188    9.78177946225051   14.24146619724059
H         2.45367569449196    9.33628745841225   13.32588930295684
H         2.95250635423128    9.00753736633297   15.00816153128467
H         3.85779682961255   10.16273216473605   14.02434830638460
C         1.92993678876389   11.93350293728134   13.72552332322462
H         2.92876966913352   12.31152021219876   13.50360256821273
H         1.31713233399307   12.75868241921127   14.09786750479498
H         1.49122925437681   11.55993652850227   12.79154525499230
C         4.62592074461167   15.71401157271002   17.09130158183302
H         5.64223545993524   16.11702159562519   17.05447261547895
H         4.18258586244868   15.98939645954757   18.04637574765879
H         4.02066695802643   16.16649317989813   16.30359699362939
F         4.27765084569220   10.54336919853712   11.27718154700917
F         6.20650551739796   10.13891403447072   12.12053660421948
F         6.04060594023204   10.71237397922746   10.05053741821700
F         4.92503813289932   16.60879471851174   10.13510918958475
F         7.02449896814989   16.66856120583601   10.58983384333990
F         6.31034709618429   15.44750884961545    8.96508770101034
N         1.07729583743608   11.14293766799424   17.43982873949865
N         2.01423762082233   10.87298198119552   14.73071939644187
N         4.58848635758385   14.26779790672367   16.98041629839006
N         5.26655721079444   14.39059976150520   14.77526560181817
H         5.45883270236076   15.36273756934700   14.96805853574619
O         4.59096787784052   12.40446157557286   15.65149440710815
Pd        2.89179588368765   11.66862650376783   16.61102590001223

