65
CSD_code = GEBKUT | q = 0 | S = 0 | Stoichiometry = C20H24CdN10O10 | MND = 8
Cd        3.56020093724347    8.52335142426467    3.16719443509251
N         3.81448788650313    6.10909147075415    7.92243389767443
C         4.13210727541495    5.98776161216172    9.33261895231874
C         4.43563288586857    7.07977142783414    7.19435069633320
C         2.87363497929971    5.26196465882651    7.37458573445932
O         2.32245055789607    4.40993880210548    8.02894339774499
N         2.60101624573974    5.43475922749126    6.01956027495917
C         1.60194002440578    4.56602247240948    5.41792130861501
C         3.16523066095029    6.37220526280269    5.19300903411807
O         2.85527775926850    6.44041712517008    4.01398833986708
C         4.14989260857068    7.23443662285244    5.83476630997842
N         4.75259734660019    8.17943298467927    5.11547755244159
C         5.64323541627607    8.96061293152430    5.69510019343779
C         6.30741957268224    9.99364212171221    4.85938276541933
C         5.90734000633699    8.81185861605254    7.08311700579730
C         6.85553505407241    9.71079126882899    7.79540435618875
N         5.30809373706850    7.88428093084853    7.80408439816558
N         2.38955028902209   10.11033572953554    5.28579196197826
O         2.00726224945430    8.94831048012799    5.06645284924585
O         3.26215813133252   10.59069742131768    4.54341064760498
O         1.92527131866395   10.75462604902721    6.19753101943529
H         3.89438907638918    6.92073092976183    9.84153870699751
H         5.19491810461645    5.78170494055536    9.45046218836686
H         3.53998592563173    5.17210792829639    9.74035495652984
H         0.74936524488317    5.16439453127055    5.09772985400601
H         1.29499855523366    3.83381577042484    6.16011447971621
H         2.03257572574933    4.07459293779124    4.54644307886604
H         7.37267854638810   10.04612180844882    5.07198652869802
H         5.85940392989193   10.96574002259679    5.06717084909154
H         6.14124760272068    9.75642763305622    3.80897276054719
H         6.55508802508905   10.74858820435645    7.66397888364468
H         7.86022559822644    9.59856417347225    7.39094140651341
H         6.86336287801498    9.46395634646300    8.85268838873555
O         4.49759010820884   10.32879675653822    1.97034483110087
C         3.62968716849835   11.16782352734738    1.78748122524811
N         3.95032341557156   12.44929732037148    1.41920027164526
C         3.05104987699086   13.48638004050562    1.18307006529824
N         1.71293405876223   13.17970818100088    1.31985864321355
C         0.72802961527670   14.22135802312479    1.09817579292122
H         0.05488269438423   13.92237011779583    0.29605255525220
H         0.14849327635894   14.37453383824118    2.00733760584473
H         1.25814075750419   15.13167275529481    0.82891582417920
C         1.28116093549695   11.93791361387419    1.68038760097904
C         2.20055024112277   10.91125994685076    1.91363209816333
N         1.78892548682726    9.69625471749695    2.27035927863378
O         5.22191175405085    7.44618394030279    2.38127435182979
N         4.56431168856752    7.12896783147956    1.37792594764576
O         3.39589472517987    7.53678945259451    1.28523844241033
O         5.04677415232835    6.44395578761055    0.51725294761552
C         0.49615247266382    9.45969521411931    2.37957694207569
C         0.07408044607245    8.08938162665388    2.76786263303032
H        -0.19079429464510    8.08204836511380    3.82558646798885
H        -0.78604940656552    7.76254930127429    2.18838349130382
H         0.91222204196091    7.40856470255407    2.62077467507492
C        -0.42937157012353   10.51460133770771    2.15755723470568
C        -1.89473424257743   10.31139535590354    2.31935815846179
H        -2.25584591283353    9.57724960725730    1.60080747829414
H        -2.11220947059117    9.93799094116351    3.31824928234860
H        -2.41062968302741   11.25357257982154    2.16095647445245
N        -0.02886726475148   11.72416743500253    1.81658666336501
O         3.42451517955989   14.59010923707402    0.86627727013577
C         5.36845389958891   12.74648419139753    1.29425270218475
H         5.82257005305976   12.04104317625417    0.59954066837879
H         5.47283761025876   13.76541521346152    0.93081601695684
H         5.84703603129150   12.63821199808174    2.26719914663997

