102
CSD_code = GEBKAC | q = 1 | S = 0 | Stoichiometry = C51H47P3Re(1+) | MND = 9
Re        1.94336081721749    2.61165463896075   15.51734032791803
C         3.08895326897773    2.89656743337366   13.57533245974775
H         3.60612380035372    2.05899951008771   13.11544381951498
C         1.73414494569371    3.13112835492992   13.30285063723903
H         1.19603915294214    2.47870807127574   12.62064467315941
C         1.13410393108912    4.38901037312486   13.64266928518268
C        -0.17540584462074    4.72469612289126   13.24796515325705
H        -0.74390506078172    4.01422890460006   12.66557399962707
C        -0.72177166997423    5.93138709563519   13.60215072429283
H        -1.72740805019184    6.17553788747521   13.29582423222777
C         0.01816204218100    6.85449681432366   14.35071490832292
H        -0.42439743360968    7.80182968706892   14.61740221722649
C         1.30317731910827    6.56660055197173   14.73242205187434
H         1.88671213282229    7.28771189113226   15.28746861016434
C         1.89245604342675    5.33509737282634   14.39353609903883
C         3.24658031098418    5.02958414151735   14.72600425572977
H         3.81947919041788    5.76496048247354   15.27611315573463
C         3.84588681802585    3.87855342244274   14.27491895623371
H         4.90402178094461    3.71342487277292   14.43720577673543
C         2.56446253829083    4.38411782807650   18.62388497907089
C         3.39712659443265    4.11822370276821   19.70337686804513
H         3.46140137631770    3.12816249118621   20.12656623537403
C         4.16170151136926    5.13440790255543   20.25236987917687
H         4.80389577517737    4.92017978742751   21.09339859787720
C         4.10984656337800    6.41558239929044   19.73118708460375
H         4.71195779172605    7.20076638983554   20.16212193399771
C         3.27608134449421    6.68955119390806   18.65801735647094
H         3.22334292608959    7.69048360529725   18.25536547343184
C         2.50889195809569    5.67976156527468   18.11258547129265
H         1.83883341732876    5.88462920308313   17.28744017500720
C        -0.08208475196602    4.04867519509364   18.02983692736057
C        -0.81024351806119    4.49177034530125   16.93433824247279
H        -0.47693885128109    4.23195176559799   15.93786571342589
C        -1.95599161789780    5.24679431254274   17.11063380486206
H        -2.51387787890619    5.58500184154287   16.25040898434142
C        -2.38100031207611    5.56187259046795   18.38964391458889
H        -3.27416214397390    6.15040239844605   18.53349148798858
C        -1.65346947114996    5.13028833673572   19.48927025613843
H        -1.98088531426993    5.38606619252684   20.48564998364221
C        -0.50222454508825    4.38598835804847   19.31373608401994
H         0.08004848135180    4.07928146711574   20.17170115198137
C         4.07338259269989   -0.34811162926389   15.37780404540394
C         3.78070175957521   -1.69325950889874   15.19004813192641
H         2.94929624781523   -2.15579983136141   15.69788931673646
C         4.56353179892847   -2.45877086657535   14.34198220471144
H         4.33257952669152   -3.50457809166948   14.20539429352786
C         5.63496266941286   -1.89443377207276   13.67113955573337
H         6.23822080698984   -2.49685224223951   13.00948731592793
C         5.93616377056475   -0.55406848253150   13.85697576942074
H         6.77661123412347   -0.11102414727308   13.34357571305180
C         5.16033950166787    0.20974100179822   14.70619944886966
H         5.39973638072048    1.25182495972794   14.87546454915642
C         4.54444365162656    1.26585114100375   17.53606472523865
C         5.24357131796753    0.29764656535638   18.25164488569663
H         4.93782506803190   -0.73817402695131   18.20288983482926
C         6.34285406878473    0.65723266224840   19.00860377002309
H         6.87874703860454   -0.09476627543880   19.56784820991130
C         6.76774541355425    1.97709505678583   19.04052256658753
H         7.63132688803625    2.25057507633049   19.62708877710343
C         6.09307155650785    2.93948550702222   18.30930833133803
H         6.42824748731605    3.96593000913862   18.32194541337364
C         4.98554078006022    2.58199623919521   17.56130252211445
H         4.44701704846888    3.32700187481602   16.98951926220739
C        -1.57613949278224    1.77002705716322   15.05509638272577
C        -2.60086936471476    2.25700202638567   15.85852926910834
H        -2.49182762298702    2.29477927134694   16.93090529825245
C        -3.78261388026407    2.69744371725412   15.28769997964992
H        -4.57334533192694    3.06793674847469   15.92274804327402
C        -3.95604358450583    2.66322927166382   13.91465604154202
H        -4.87934834571829    3.00857256558507   13.47537072729271
C        -2.94214007714475    2.17482988188620   13.10605837041948
H        -3.07512897091309    2.13480781074759   12.03482465289370
C        -1.76182833805855    1.73491949770586   13.67336450939007
H        -0.97508175926686    1.33612403998619   13.04622841784041
C         0.15311320293680   -0.34603331248762   14.70824853098052
C        -0.86891898316738   -1.28830303434594   14.79337975657403
H        -1.71680728922767   -1.10944164867271   15.44025103560583
C        -0.81133825117320   -2.44177008270604   14.03395633496292
H        -1.60274227070244   -3.17237350342669   14.10643971267409
C         0.25331263188021   -2.65761873366485   13.17154240715160
H         0.29077573658674   -3.55750221766811   12.57707888586288
C         1.25978772251047   -1.71318851606974   13.06503930029112
H         2.08485977954727   -1.87176075643674   12.38675572067059
C         1.20712155481981   -0.56223800967315   13.83143375405070
H         1.98982995477357    0.18055213880275   13.76108455666825
C         1.45762023819551    1.73151917845468   18.89388703044514
H         2.47940601192601    1.56575930758463   19.24380461657382
H         0.83135122876877    1.98876553171391   19.75259130614020
C         2.08367170039991   -0.28462582316929   17.47357457317001
H         1.61713008628035   -1.00099615449737   16.79343425413444
H         2.73206609864524   -0.82911285442984   18.16506864593902
C        -0.28392403458142    0.65293342744364   17.38414367457592
H        -0.89206727696331    1.42308992227445   17.86381746410696
H        -0.87228464973322   -0.26662271860792   17.32620294535933
C         0.96178433270932    0.41974808710397   18.25905626349348
C         0.54787918832858   -0.51688566545895   19.40500044911222
H         0.30503540484281   -1.50552478691424   19.02304036363232
H        -0.32573750603747   -0.12724660195040   19.92202326566390
H         1.35402099598045   -0.61876512454573   20.12760220499761
P         1.49971392491934    3.18271684679273   17.75305545591698
P         3.15119669776124    0.81422598065054   16.44101037915526
P         0.05626856151697    1.21424951555515   15.65672482841424

