75
CSD_code = GEBNEI | q = 0 | S = 0 | Stoichiometry = C34H16B2F20N2Zr | MND = 13
C         0.90455734642747    4.36498812574240    4.40441317623007
H         0.42998384707595    3.42711060558368    4.66677697004918
C         2.19273106161944    4.77279289421821    4.83247561949335
H         2.85858700687748    4.18320100121210    5.44633125576862
C         2.33893777447692    6.13791397240247    4.51991112103078
H         3.16360394011106    6.77474491007819    4.80968758403838
C         1.15143868767316    6.57857443012427    3.90900764903729
H         0.90764624018746    7.60565509056661    3.67264804162914
C         0.26155467665416    5.49562169850667    3.85407689746255
H        -0.78037585577686    5.56539470719706    3.58072233397397
C        -0.16643224934341    3.53837049272837    1.74166439560731
H        -1.00163980064536    3.41136728696796    2.41321038541329
C         0.71826704527168    2.52120930818392    1.35647857958782
H         0.66973164379295    1.49025088359353    1.68095742536180
C         1.53123466906681    3.01839708770067    0.32019599523245
H         2.21825731700593    2.42770624937952   -0.27160069960362
C         1.15830554099370    4.35542542328101    0.07366943242235
H         1.47126347322786    4.96323901014068   -0.76336505554721
C         0.11492481492739    4.68632676155860    0.97283332671685
H        -0.49395622313754    5.58031288064232    0.91718592761731
C         4.33997492010010    8.19539457968593    0.30844903044438
C         4.36110986477043    9.53090383789653   -0.06750031413282
C         5.44986776472111   10.35939775175454    0.19522098278921
C         6.56494785767849    9.84987540282603    0.85222694678702
C         6.57563224720330    8.51644615421747    1.25048447012564
C         5.46848470287404    7.73011835558006    0.97115293743951
C         3.86791843297028    6.00615586225219   -0.93818152572483
C         4.27630505570175    6.31151858714383   -2.23833593321178
C         4.89706236959251    5.38728138350647   -3.07330391430468
C         5.12788057254249    4.08348986590256   -2.63229583137558
C         4.75054100633125    3.74737373234352   -1.33926818345218
C         4.16467962691494    4.71927864348089   -0.54310526193155
C         5.21822003301247    3.42797145301984    4.54933462498565
C         6.16807903321182    3.19259679979265    5.54567268778528
C         6.99626773911421    4.18935971136455    6.05277870232286
C         6.89431461437645    5.49765057474920    5.57825772994512
C         5.97169601254575    5.76688565930565    4.57630059505532
C         5.19516484356983    4.72705949301683    4.08902957516504
C         5.32808811734213    1.26420634483099    3.18162543840071
C         5.63689565875118   -0.05267290611879    3.49088438604866
C         6.58773553863693   -0.77990308896120    2.77818807560497
C         7.26475109172315   -0.18364939487540    1.71950710033811
C         6.97539804966091    1.13377858265363    1.37665209098114
C         6.01922311395491    1.81769647258092    2.11142614523297
B         4.27661608606206    2.21088568420478    4.00007921539139
H         3.77963798432358    1.65435339949311    4.91992728604961
B         3.13650457427756    7.13714868814291   -0.01278538713482
H         2.24726244719177    7.62548729678361   -0.62411962830381
N         3.13820376926051    2.66573306356770    2.96559043324092
H         2.35249868832086    2.05778235898051    3.20963899318201
H         3.46616757129524    2.32791176064877    2.05712008320066
N         2.58942193364247    6.59459370469815    1.39453255210293
H         1.71623144512542    7.11386914788721    1.51529086785266
H         3.23208067942920    6.98464418630862    2.08896320312770
F         3.29932784238268   10.06047790778278   -0.68350101926077
F         5.43028682749876   11.64330109563467   -0.17400907987024
F         7.61381281861642   10.63523189302206    1.10453202737507
F         7.63512866673949    8.00638503527816    1.88593292993465
F         5.46929372252394    6.43640889278629    1.37849311960158
F         4.06627209632746    7.54052373845578   -2.71673494584692
F         5.26057619842623    5.73398836666799   -4.30785159008801
F         5.68575998042932    3.18323343963689   -3.43883484282081
F         4.90092376828436    2.50839481857936   -0.85553662931353
F         3.83157003500687    4.33158759638926    0.75474217788803
F         6.29789529781956    1.96099930163610    6.04554271405362
F         7.88197942502389    3.90659148011542    7.00779216621459
F         7.65649343260642    6.46478484829098    6.08408571565797
F         5.78690281433612    7.00326805512986    4.09807242692601
F         4.30561126146523    5.05092617927536    3.06403949586065
F         4.99268770563160   -0.66515879634641    4.48947616354612
F         6.85165244530367   -2.04960513055439    3.09953589247026
F         8.17987579604954   -0.87121392783485    1.03379127438942
F         7.61113427539404    1.72591784596940    0.36083608297024
F         5.72114350032556    3.09431691427666    1.76329931487333
Zr        2.22048768747828    4.59821447792345    2.32297806955466

