71
CSD_code = GEBQIP | q = 0 | S = 0 | Stoichiometry = C37H24F4IrN3O2 | MND = 6
Ir        2.30984681943884   10.63610009669507    3.55143820302944
N         0.70014903272798   10.51805163832890    2.38417160469492
F         5.43215317755978    6.57706953019239    4.73695774876872
F         2.30403547545054    5.66074394021802    1.39400186246393
N         1.70054051386784   12.61278120626127    4.19918205482122
F         1.79419325341857   11.66827943790092   -1.59198113078099
N         3.95454510463403   10.59798567341317    4.72057110454855
O         1.30137785754982    9.97850645557817    5.33698345468396
C         1.80432914557248   13.81563130024177    3.38943026500804
H         2.81812038197148   13.89479781109460    2.98135176156956
C         1.49989912320942   14.94210248502720    4.40602613340902
H         2.37628133891675   15.56068437191137    4.62651425143311
H         0.67836612044413   15.58661945007053    4.08166483607603
O         1.11252340683028   14.26156461995811    5.58425910210392
C         1.28137843356961   12.93064133333734    5.38225439583996
C         0.99438469371641   12.07026506121369    6.48935982809548
C         1.02126708393413   10.64291849035850    6.38880580528306
C         0.67755448214113    9.92007693237332    7.56633077052355
H         0.69196404515589    8.84252514298973    7.49018054718361
C         0.35342073439875   10.54143852448514    8.73806504264573
H         0.10565465825219    9.95123934684203    9.60934141025047
C         0.34105676202183   11.93780201132046    8.82254512595554
H         0.08587084725215   12.42404748509788    9.75148842247330
C         0.65339305396442   12.67604556775001    7.71360288747062
H         0.64439703331170   13.75472024792049    7.75892107099502
C         3.12232829769057   11.21482732004755    1.80397147107921
C         4.42543256546348   11.64010793824072    1.56510038186857
H         5.16081728989068   11.65198235213327    2.35546273546914
C         4.80700412765857   12.05340877536759    0.30338204109928
C         3.93132564491216   12.06129518985530   -0.76768582908263
H         4.24241886210324   12.38345081615837   -1.74739255536341
C         2.63810077324272   11.63969924299546   -0.53553810638544
C         2.20593389079920   11.21999355533551    0.72135518624368
C         0.85458737102231   10.79763788817644    1.06772094693261
C        -0.21918327546243   10.66937010589367    0.18841515256810
H        -0.09345093224783   10.87862041251239   -0.85902833406361
C        -1.45151515926453   10.26391573835437    0.66536888779378
H        -2.28744941811034   10.15865638525151   -0.00892355329036
C        -1.59238777671426    9.99153265007034    2.01798186421435
H        -2.53546485398713    9.67160996121067    2.43083812015223
C        -0.48737339773622   10.12780098551521    2.83595033866224
H        -0.54195260915969    9.90519470449255    3.89271234296639
C         2.91848727387716    8.75750543702685    3.18288522910002
C         2.37291370773875    7.83361231024199    2.29895438378177
H         1.57349130271292    8.10172701224410    1.62542480804609
C         2.85084908117630    6.53828668754749    2.25975911480111
C         3.87820516093045    6.10575103127865    3.07824031501687
H         4.24482430885296    5.09361919351553    3.03779102040920
C         4.42274699566290    7.02193593204629    3.95381526001643
C         3.97108430656833    8.34016136020927    4.03276350900393
C         4.50035758954832    9.37309255181881    4.91458754824208
C         5.48663534730681    9.18303914296910    5.88396479295390
H         5.90310400789726    8.20579772735344    6.05195149700782
C         5.92710151009437   10.25077238602982    6.64093513974723
H         6.68313513795770   10.10913229266328    7.39771217196685
C         5.38539655373640   11.50533566756374    6.40373406909487
H         5.70759727945414   12.37190389795102    6.95813276928842
C         4.40581306316293   11.62377617011190    5.43782771587610
H         3.96572954279493   12.58904324918709    5.23261854528396
C         0.81327728685277   13.81214672146790    2.25117759155300
C         1.21250365084413   14.15953192719405    0.96865209924053
H         2.24675983745009   14.41001504100984    0.78164994995884
C         0.29476870973776   14.18256085236098   -0.06636040238868
H         0.61462719551806   14.44974865349802   -1.06199549568487
C        -1.02947629566285   13.85887180558004    0.17349616588291
H        -1.74521312793320   13.87536376799283   -0.63453887581621
C        -1.43527995882880   13.51821273054441    1.45267974816896
H        -2.46852969724398   13.26998750159330    1.64588152756190
C        -0.51867197504009   13.49658827141071    2.48773541319216
H        -0.83835715478880   13.22849054850784    3.48516329601409
F         6.07384538020530   12.47244794690508    0.10160344328514

