62
CSD_code = GEBSIR | q = 0 | S = 0 | Stoichiometry = C22H27NNiO11 | MND = 6
C         5.93064472019862    9.46048313280533   26.52335546003965
H         6.17319784381109    8.61992535259714   25.86120910529999
C         7.25417661517993   10.02508521756498   26.98613577047997
C         7.32757191108049   11.13823763651872   27.82049937188697
H         6.42828022801570   11.64489556301618   28.13321711717579
C         8.57231182995058   11.57830197021942   28.23205678950676
H         8.66284211431665   12.44134640512441   28.87637558334255
C         9.70125441262805   10.89416204226896   27.80542183382153
H        10.69015077221120   11.20623030653938   28.10307552882416
C         9.52118102388421    9.79369439118998   26.98402879377291
H        10.36408526054433    9.21937122233737   26.62140548937149
C         5.08740437171934   10.43433290771816   25.73789535935835
C         3.73973977620367   10.15001165609962   25.51639700902903
H         3.31309282416361    9.24794683270312   25.92938487926888
C         2.94982229795774   11.00035673014570   24.77927974796074
H         1.90802582277478   10.78364066985630   24.60337998893773
C         3.48870185622883   12.16813958804311   24.22409086015575
C         4.83885398888304   12.45225269576584   24.43056398806464
H         5.29636376482391   13.32706452721884   23.99774254486769
C         5.61940089116530   11.58604213848447   25.17096826789777
H         6.66727278285046   11.81227167011679   25.30023244065877
C         3.02740327282495   13.98339004320692   22.77298893229378
H         3.78071080480660   14.63896886190158   23.21100380938061
H         2.15880524138161   14.52416772005507   22.40832248009477
C         3.85428788646776   13.38855083225339   21.34618899251577
C         5.22374867429697    8.91542890819346   27.74642648422906
C         5.45918981483362    7.61224980916630   28.15503443017569
H         6.11928496709640    6.98461954277375   27.57420207583607
C         4.86666605973522    7.09406703193249   29.29444690646000
H         5.07156037853951    6.07173460350870   29.57157655029269
C         4.02068326062511    7.89001308670774   30.05737232529789
C         3.78409602458268    9.20498424965209   29.65462935952152
H         3.12585568902125    9.81234691775937   30.25533057423146
C         4.38003080739409    9.70792598430526   28.51876989940392
H         4.17247774706532   10.72470654381523   28.21940943823143
C         3.58762490822478    6.18450542394053   31.65664193506172
H         4.65572699666325    5.99730647429429   31.84392907176225
H         3.21109949480508    5.43364752067351   30.94937694363862
C         2.85621179229010    6.02268553950416   32.99800429023323
H         3.19139715107833    6.26261631115990   35.43709517985396
H         0.58601909175968    3.47535331600250   36.98002446542175
H         3.17426688124044    3.29082287891728   35.79923310439142
H        -0.84803208708202    5.09425522970301   33.66863289747705
N         8.33420627968245    9.36982410667158   26.58632804894883
Ni        1.29069424344626    4.76238728270632   34.97457981172374
O         3.78978974556049   14.22965960821129   20.49370060458325
O         4.30575909958420   12.29985333888519   21.56726959325129
O         2.61048853996072   12.94714561221465   23.54780770846592
O         3.37631626055672    7.49197431426196   31.18912105950041
O         2.86127183157892    6.95596447440986   33.81639675697171
O         2.30731994772611    4.91191106916146   33.19442663501484
O         0.30085142177072    6.84581161252538   34.74289752409473
O         0.15091786997021    4.29577143508105   36.72206941765560
H        -0.68290152277307    4.04789858292590   36.30718508791776
O         2.43374527117855    2.81762060293780   35.39763008545924
H         2.68378834476905    2.64433156172500   34.48344318229810
O         3.04774370171030    5.64281601954697   36.18644262161075
H         2.71260137432507    6.16485434757618   36.91910538070342
O        -0.57140560416551    4.17494526933140   33.77961379205119
H        -0.11056167057710    3.93085603664249   32.96948751836157
H         1.13581499746737    7.17266649631348   34.34538361605236
H         0.21206990200382    7.27666874316411   35.59605547980460

