63
CSD_code = GEBTIT | q = 0 | S = 0 | Stoichiometry = C36H22N2PtS2 | MND = 4
Pt       14.47279347485246   -4.49856124499283    3.14241181943577
S        13.09413615597845   -3.02138568300496    4.18156286252739
S        12.78045845140655   -4.98561597964063    1.70526541926639
N        16.06607027048947   -4.15694295270105    4.33971680562019
N        15.78991355654668   -5.81020011051267    2.34624186504609
C        11.60202007907202   -3.08037137614040    3.28124705805465
C        10.56872899934593   -2.23992631944017    3.63337120431854
H        10.69741863462402   -1.61258482645947    4.50105469264196
C         9.38330807122899   -2.19724088318550    2.89312240171322
C         8.34458056989724   -1.23235283431974    3.14037800852193
C         8.54293896404922   -0.03020147640031    3.89343843304044
C         9.80842077971760    0.61738461446036    4.08102795779149
C        10.91689211708516    0.49169745962723    3.17069992268559
C        10.77158416532881    0.04501092497530    1.84580323627747
H         9.78229092483666   -0.13470537017739    1.45369792233488
C        11.86201304615085   -0.14350730718950    1.03692662275010
H        11.72655285374091   -0.49597199043542    0.02486992794235
C        13.14982809813660    0.11389483256177    1.51424695470160
H        14.00545593880982   -0.07909686601633    0.88378093869326
C        13.31312523594104    0.65042326316663    2.76359859473872
H        14.29766460325530    0.91507618836565    3.12347518352113
C        12.20715962202175    0.88650330058456    3.59748054874642
C        12.35546798509881    1.55868246751876    4.84056080390524
H        13.34939025213160    1.83602500713631    5.16205704460269
C        11.26422404378008    1.91099121264144    5.56158537003411
H        11.35939082001462    2.51049808373082    6.45620124206282
C         9.96509806001374    1.47233750738381    5.18781393810437
C         8.82789861440524    1.89707403118773    5.91566853673612
H         8.96955171140921    2.56632442054997    6.75234747522470
C         7.58260612586449    1.53145697907391    5.51499759590116
H         6.70271760640887    1.94087493385328    5.99058977953540
C         7.40953272184181    0.55634777280426    4.50390768629038
C         6.11230022074283    0.15830510360730    4.10417480211735
H         5.26127326200962    0.64557494408912    4.55836084958408
C         5.94534095874135   -0.78169752557061    3.13689091391747
H         4.96107702887695   -1.02689763322446    2.76390676922430
C         7.05304232061965   -1.52084391929973    2.66075120338025
C         6.86882347674850   -2.56147576805219    1.70889749551147
H         5.87454612169775   -2.71840526652934    1.31495497255019
C         7.91178224374535   -3.31195387857146    1.28011747402215
H         7.78170873627099   -4.05996108947415    0.51118854515667
C         9.18976993773334   -3.18111517847310    1.88679093092436
C        10.24463805842139   -4.03297376716928    1.54220236098680
H        10.10872836702998   -4.76401040647529    0.75851832562645
C        11.45688021598301   -3.96008983205848    2.19298403888075
C        16.12895906207629   -3.26799598790515    5.33439059842612
H        15.23648596482067   -2.68116915475090    5.50692114366771
C        17.25357229457795   -3.09213624455341    6.10975726765688
H        17.25406046709479   -2.36158657247496    6.90174854529372
C        18.37988854301670   -3.87223645652916    5.85038716556464
H        19.27680995275456   -3.75889994611779    6.43894067872719
C        18.32465078659102   -4.79099989752037    4.82570850584269
H        19.18219531731375   -5.40451437065076    4.60376280951721
C        17.15422093638603   -4.92497012892292    4.07208942858993
C        16.99556424428271   -5.85598337585081    2.97120217166395
C        17.98282474733919   -6.75321390704198    2.55178017747066
H        18.93323295487273   -6.78478134341096    3.05853832527221
C        17.73719150934969   -7.59911455005366    1.49287454028592
H        18.48952891958249   -8.29737385618979    1.16113074314028
C        16.49638773056202   -7.53390349839524    0.85983036660661
H        16.26312054549359   -8.17598159848144    0.02660161630937
C        15.56219717521860   -6.63179314829300    1.31778400610674
H        14.58876534667892   -6.55473952465166    0.85186537507367

