94
CSD_code = GEBTUF | q = 1 | S = 0 | Stoichiometry = C47H40BrFeN2OP2(1+) | MND = 6
Fe        3.04034891542699    8.30177553514732    3.67114107143101
Br        3.17930743267633    9.49942958154326    5.68880280728280
O         5.91445611588059    8.51610973131632    3.95175883568381
N         2.83717702882753    6.58029570448110    4.83277394237161
H         3.08946340382604    6.80334122698023    5.80125544450074
N         1.11325606575022    8.36329620214235    3.78291242372869
C         1.40237710646258    6.20898204983730    4.82123109558862
H         1.21398893877826    5.67330284737210    3.88235335832496
C         0.55222849005369    7.49098212392412    4.80097173521758
H         0.67854392697549    8.01004068129494    5.76073996291551
C         0.38885640141494    9.23625462135942    3.21279663559814
H        -0.67509286357779    9.31373131160213    3.42630414634711
C         0.98813552382355   10.17771533956424    2.23764062958600
H         0.59117757587760   11.18921062944330    2.36463589039341
H         0.72984742155779    9.84665371634114    1.22772658107142
C         3.83100982066997    5.38928213907871    2.99813204211147
C         4.50812716573909    4.29810536642600    2.46708084043747
H         4.66685482044338    4.22822947120281    1.40046806446450
C         4.99090829468222    3.31705443978772    3.31680281879208
H         5.52270675059206    2.47192010278907    2.90857701760884
C         4.80899780176280    3.42355602850278    4.68686829937080
H         5.20371004638198    2.66410142339672    5.34311791833653
C         4.11650872633117    4.49807613817419    5.22310613250845
H         3.96249397455122    4.57480434143632    6.28925788122922
C         3.62466395421958    5.47499546793112    4.37411797332780
C         1.03133396255273    5.33205238387350    5.98996549681175
C         1.27804612353532    5.75616219022324    7.29148804132514
H         1.73499029606883    6.71865876710322    7.48192865791526
C         0.93100720877239    4.95225729972141    8.36218089625798
H         1.12670264247133    5.28882273995497    9.36855084002265
C         0.33241172776957    3.72271294453018    8.14271787423170
H         0.06134174739978    3.09753032787823    8.97904583388510
C         0.08043725126903    3.29885501124952    6.84925271949997
H        -0.38819177807778    2.34297771661753    6.67356876677682
C         0.43038886584584    4.09995236968165    5.77656169476148
H         0.23029383557993    3.77060661719687    4.76673588600135
C         4.79379168925425    8.39074934311180    3.77942588825773
C        -0.89863072870750    7.11736282031864    4.62277506595741
C        -1.76606630470048    7.16132068166029    5.70549644550796
H        -1.41170871920903    7.51108314676808    6.66380436367926
C        -3.08043350453278    6.75320165153248    5.56065123942085
H        -3.74763378505059    6.78914609346508    6.40759146606810
C        -3.53778460825570    6.30115432557811    4.33447749135203
H        -4.56278109768267    5.98361600915065    4.22285616657239
C        -2.67670523807553    6.25787222400936    3.25093223345776
H        -3.02520241606688    5.90686639606238    2.29145318570467
C        -1.36146660579016    6.65999285531949    3.39483207353648
H        -0.69391519573722    6.62513892894212    2.54588504343209
C         1.74446181517291    6.20260307145153    1.19791236953017
C         1.28290007911086    4.89745599166846    1.33457661019269
H         1.82539098227198    4.18917497809439    1.94611014177365
C         0.13109277625261    4.50145306144540    0.67595961067505
H        -0.22288519577672    3.48744751354043    0.78298803695960
C        -0.56513745769621    5.39834434416252   -0.11772613515439
H        -1.46200373394226    5.08379327563023   -0.62831618485235
C        -0.10837820342433    6.70002008667133   -0.25954187179085
H        -0.64743262872945    7.39845109039962   -0.88219808775640
C         1.03884501388494    7.10006607669294    0.39943121076333
H         1.41581898972988    8.10950729863012    0.29233017103886
C         4.45282382043131    6.88850714036264    0.70973769299149
C         4.11131758070592    6.97855122691948   -0.63527670250515
H         3.07616963647662    7.01413318659630   -0.93943054617099
C         5.10225862837358    7.00447980472568   -1.60102192046029
H         4.82737964848560    7.06805834333331   -2.64284635682617
C         6.43614062105007    6.94068477483610   -1.23730336348120
H         7.20460437823964    6.95567050151491   -1.99469207538089
C         6.78289315625355    6.84836771375957    0.10191691544974
H         7.82113648839072    6.79025850516768    0.39146770831950
C         5.79924513603914    6.82575003250091    1.07063657612422
H         6.07330972115272    6.73861997771949    2.11237364606850
C         3.19014818370350   11.76835259738069    3.15468831518335
C         2.34325963525749   12.29937238143519    4.12745849052850
H         1.47574852685831   11.74616441020741    4.46094593389681
C         2.62561856545365   13.52633396207578    4.69538493455692
H         1.96864189939921   13.92855469565411    5.45097801764987
C         3.75498784104556   14.22935842197958    4.30722844171817
H         3.97586763518634   15.18520202890246    4.75618736686678
C         4.60523186048332   13.69973963430631    3.35115121647802
H         5.49013677438756   14.24092424964796    3.05283538952856
C         4.33130648124317   12.47087654128948    2.77806473625230
H         5.00259560543333   12.06260549299320    2.03622823211644
C         3.55038099849614   10.24606343969483    0.80908953123762
C         2.85447219122680   10.69665348785483   -0.30722061041009
H         1.81234406171509   10.97355835157927   -0.23655216346418
C         3.50514825369089   10.81856873713592   -1.52284554539771
H         2.95877139861281   11.16406353570531   -2.38746104588820
C         4.85297981835396   10.51925269378849   -1.62904584761561
H         5.35626089784530   10.62892690497327   -2.57702055342510
C         5.55799104480986   10.09308638232320   -0.51506919316584
H         6.61254260148168    9.87684624789818   -0.58871289927442
C         4.90720952428046    9.94706006733324    0.69493720262658
H         5.44866753821625    9.60922501093404    1.56781161217491
P         3.22495408507981    6.82888556520904    2.05381513173105
P         2.83590511752613   10.11928809886289    2.47328494191205

