92
CSD_code = GEBVER | q = 1 | S = 0 | Stoichiometry = C47H39FeN2OP2(1+) | MND = 5
Fe        5.64092634908763    9.19288428191384    7.61459767235519
P         5.35477479913505    9.93391610906093    9.63370704094365
P         7.17859691007553    7.66638510799494    7.84878344658917
O         3.44448826782535    7.34088743444243    7.98470752137933
N         5.36207811805043   10.90968752203046    7.10038974311521
N         5.88588949828304    8.89023697190493    5.73641974302456
C         5.35998720089278   11.23028030065209    5.67949919032279
H         4.45477490676496   11.80411716361813    5.42843764983270
C         5.31239890611215    9.90726780980000    4.88200732639960
H         5.89473566811510    9.99688517637708    3.95466102184253
C         6.51923469737493    7.89712876122524    5.25434423859430
H         6.69824159671940    7.79783977245033    4.18463063310738
C         7.01137688553970    6.84550238988998    6.17818558128626
H         7.93240631592591    6.37146110312668    5.82791369760143
H         6.22867720221257    6.08335420428795    6.26936234815664
C         5.05570734460782   11.97174930747903    7.94149685947678
C         4.97161375185775   11.67125519343021    9.31430874126939
C         4.70136108154754   12.63952644341035   10.26595832158703
H         4.66675630077454   12.36976340090201   11.31240412532988
C         4.48454662843898   13.94529860205770    9.85827273009540
H         4.26998036519757   14.71284473586482   10.58482927978079
C         4.55947058613002   14.26026963056821    8.51033867336829
H         4.40104459887035   15.27928097227702    8.19162360409755
C         4.84438209400835   13.29920993956093    7.55578064417464
H         4.92346389355642   13.60408439443560    6.52436587136980
C         6.57505633441550   12.04339428940106    5.26020305113635
C         7.65272876765308   12.25401388233791    6.10755534918960
H         7.63161285466630   11.87382143293932    7.11949649241761
C         8.75363765210850   12.97482344649917    5.67577501152450
H         9.58030556798867   13.13845145815098    6.35104844922164
C         8.78774352075619   13.49229685043153    4.39354237662379
H         9.64517120928722   14.05455027614572    4.05741494371223
C         7.70931235545437   13.29649853043022    3.54556947425746
H         7.72361569170177   13.70628624933950    2.54730952496143
C         6.60931032916009   12.57854811489791    3.97654325489321
H         5.76465780684515   12.43644328654211    3.31662823242643
C         4.36434981652290    8.01067116803386    7.84704545474586
C         3.89788379210290    9.48741612120829    4.52871829566193
C         3.61807830466491    9.03310106026848    3.24704392820165
H         4.40043517556684    9.00270399612444    2.50153377973937
C         2.33698672979011    8.62880818430099    2.91263360741194
H         2.12962597794932    8.28308015183254    1.91161345238142
C         1.32796612732147    8.66822245459577    3.85915196968163
H         0.33028098513316    8.35000761061539    3.59948985455405
C         1.60269189549858    9.11909226093005    5.13956270578087
H         0.82028442317208    9.15301201900801    5.88201691287285
C         2.88088074715201    9.52837879004155    5.47429796128850
H         3.08682231575583    9.88161820677578    6.47576963995032
C         4.01679366422314    9.27662939009540   10.66309113683148
C         4.19786741223809    8.00950637228306   11.21802336711292
H         5.13295109195122    7.48750354686878   11.05712719347067
C         3.18912612153538    7.43103609597927   11.96328708342400
H         3.33378603196634    6.45300596809865   12.39698504549053
C         1.99024829402906    8.10426034237229   12.14677407009644
H         1.20238716585406    7.65141265997917   12.72884489147889
C         1.79864066599817    9.35139066564272   11.57570417789025
H         0.86064600943399    9.86867257532391   11.70996012890877
C         2.80468490766649    9.93849960435688   10.82745911012380
H         2.65085561643932   10.90764278217749   10.37391735741908
C         6.77198468024418   10.10116191203344   10.76414032724626
C         7.99502080386774   10.41068300518605   10.17231041750368
H         8.04884203472107   10.50842189776893    9.09436186252835
C         9.12300937852060   10.57851677708021   10.95082436302163
H        10.06998972923173   10.81017301020500   10.48662929969305
C         9.03338276691123   10.44237759151741   12.32830630281765
H         9.91367800173859   10.56725731239642   12.93981774186939
C         7.81596996680917   10.14896889706910   12.92092590781897
H         7.74826617811959   10.05097793593026   13.99387368068534
C         6.68108483058294    9.97892729165408   12.14557190817978
H         5.73387554801209    9.74436194510523   12.60957967291449
C         8.92537280088175    8.20335615782571    7.76260825740437
C         9.95774580645604    7.63005122741889    8.49542663643401
H         9.75924643654363    6.81038807086674    9.16971723622190
C        11.24845623211218    8.11187934573860    8.35488099116724
H        12.04816113811646    7.66461923603478    8.92547195220406
C        11.51694654651204    9.15926031186258    7.48935591737560
H        12.52504136593710    9.53083561161387    7.38797254939351
C        10.49026025435811    9.73056464770368    6.75273869792496
H        10.69278627318886   10.54515607194273    6.07339948115891
C         9.20035901388301    9.25728442341651    6.89250476268796
H         8.39300759130408    9.70839946796738    6.32738283637346
C         7.21515652062444    6.30442602759197    9.04743105135596
C         7.48356679263403    6.66969268432857   10.36848226658319
H         7.69846507194333    7.70634714224097   10.59535124470660
C         7.48927226929373    5.72060401164772   11.37250492511791
H         7.70147315127328    6.01490231170037   12.38945892311428
C         7.21909706451999    4.39472992298583   11.06975666013604
H         7.21968031362606    3.65088084141535   11.85130593177523
C         6.95071061229820    4.02602719293127    9.76237602784187
H         6.74397477717178    2.99349923567946    9.52520198138419
C         6.94486806370238    4.97296248197492    8.75158947734502
H         6.73800865577080    4.65868942639404    7.73997771803610

