39
CSD_code = GECBOH | q = 0 | S = 0 | Stoichiometry = C17H13AgN4O3S | MND = 3
Ag        0.11707905194290    1.44654049485664    4.62652562019165
S         0.20855622836472    1.91494471609509    2.19433029418739
O        -3.12005889796357    0.41525955192546    2.01899509031797
N         0.00425453654404    0.86228534588038    8.09617396229632
H        -0.35038705374182    0.57316486595624    8.99859902917364
C        -2.26246307180417    1.27341962353875   -0.70557689733083
H        -3.24284813522350    0.82243633623361   -0.70408360511235
C        -1.56283639174003    1.39326171594288    0.48373300924627
C         1.74763776245272   -0.92571780566398    5.54850714899176
H         2.18165921535991   -0.66971760005232    4.58849085811170
C        -0.31466384217101    2.15971650205065    7.76331678489494
C        -0.30496132646578    1.97033681331782    0.48957345896186
N        -1.12209994990767    1.20686635365902    2.79039276817108
N         1.14186903074303    0.08528296754341    6.18443146997703
O         1.35458734023869    1.05312064211016    2.42244225684313
C         0.29466568041252    2.43978771343613   -0.65528621173337
H         1.27688452316956    2.88549428092210   -0.62236231922546
O         0.36542020327284    3.22794471855116    2.79344691537382
C        -2.03660681347624    0.94399878530970    1.84847014934463
N         0.06822980618501    2.67626547227503    6.59340833318560
C        -0.40962016626936    2.31855578858572   -1.84766202149863
H         0.03231114012032    2.67724435889929   -2.76549200786947
C         1.84827749927080   -2.19869622576817    6.07076504709291
H         2.35092198466015   -2.97791595246318    5.52227057272001
C        -1.02872401475002    2.91341237428163    8.70909798788156
H        -1.32482589988629    2.46571982365024    9.64601856244659
C         0.60808054211341   -0.15116264818138    7.38548271304052
C         0.66649323430359   -1.41819403169595    7.98778944415604
H         0.22732338857409   -1.57530430972518    8.96167763401170
C        -1.33901158622047    4.22405401904200    8.42484897824469
H        -1.88361230340742    4.82356545553464    9.13853641233300
C         1.29131002012160   -2.44840157673016    7.32186792201021
H         1.35028160155470   -3.43018989887310    7.76670858289861
C        -1.67193642079395    1.74228193101357   -1.86991032913503
H        -2.19989451495306    1.65880752840449   -2.80871895924137
C        -0.24154885701316    3.95136673449229    6.32893767562473
H         0.10918733712380    4.32009497781135    5.37172711132282
C        -0.93483452625558    4.76044844239574    7.20553357092705
H        -1.15399635448936    5.78392171546500    6.95019298716503

