49
CSD_code = GECFEB | q = 0 | S = 0 | Stoichiometry = C20H22N2NiO4 | MND = 4
Ni        3.10055055716969    2.05657908346526    6.48888366626108
C         2.37371780669037   -0.75704360393972    0.76969030091764
H         1.32382796058502   -0.48206310655194    0.83474625852603
H         2.55773100206999   -1.22719593141055   -0.19274457597373
H         2.59058777336978   -1.46953011436792    1.56128934261164
C         3.26946370931936    0.46963654651699    0.92819450757982
H         4.31935743057550    0.16815885527163    0.87472309302226
H         3.07894341724340    1.19689222581206    0.12740715575714
O         3.14658362480811    1.07119392855636    2.19572262192990
C         2.04176583807568    1.80273646057465    2.49653442936807
C         1.05324107423114    2.17939623390046    1.62442149885361
H         1.09242638789081    1.88792846562402    0.58607229908150
C        -0.03454942686289    2.96035186539081    2.05081807824909
H        -0.79014593757123    3.23843352645539    1.33211588083279
C        -0.13142300575485    3.35465804779338    3.35054045187490
H        -0.96722393409071    3.95126748189537    3.68629980371463
C         0.86063854438529    2.98634006147038    4.28809531797221
C         1.98057205727329    2.20040108501517    3.88411734507083
O         2.92041791862444    1.83431931220544    4.66594624759325
C         0.75260135442719    3.40479215424467    5.63312789488181
H        -0.10026495124391    4.04315705203581    5.87445737013696
N         1.57727585096807    3.10049016689626    6.58742491660657
C         1.36314049679208    3.68746037250787    7.90352082517256
H         0.29473215442431    3.83230192525607    8.10610939595073
H         1.85868578289482    4.66671218386839    7.93402249807615
N         3.19806464425798    2.18294795446049    8.33309842027115
C         2.00389503671167    2.75894941854610    8.93662982567154
H         2.24504392295650    3.29763685653112    9.86138991801359
H         1.30760877984787    1.94551852645560    9.17968309546458
C         4.14861475667399    1.77016608267283    9.11402482936391
H         4.03461650677119    1.92484995070614   10.18927903502788
O         4.68577797440712    1.12370281956634    6.39432901870835
C         5.52594243424679    0.83879995445437    7.31169837078257
C         5.33315681741818    1.12409826254883    8.69589103402554
C         6.31369899787967    0.75608332390633    9.64630830815775
H         6.13714229350824    0.98292465469269   10.68777058916191
C         7.45778791211743    0.13043749345064    9.25428492887444
H         8.20773337618185   -0.15179756613404    9.97715139387808
C         7.68131954779652   -0.15573129617776    7.89619375271277
H         8.60057665249121   -0.64908108814927    7.62031089754049
C         6.75679099946464    0.18052005744934    6.94127607520244
O         6.87398979014928   -0.04337792628230    5.60915726157664
C         8.04978303358106   -0.64012658219071    5.11320946234604
H         8.92776639887209   -0.03602408740135    5.38678252158385
H         8.17519280390920   -1.64723482579700    5.53841766170795
C         7.91523175379674   -0.71922011494238    3.60034633003110
H         7.78473726900866    0.27899938440457    3.19253586024311
H         8.80259679671584   -1.17422657601470    3.16851214390290
H         7.04187801496085   -1.31068895523532    3.34148264168971

