49
CSD_code = GECFOL | q = 0 | S = 0 | Stoichiometry = C20H22N2NiO4 | MND = 4
Ni        1.79658956792315   10.28782785073919    6.29209706621324
C         6.82825162699323   12.34550203678919    3.18507737313879
H         5.97882036952339   12.86227448194085    2.74803506126501
H         7.74510265593748   12.69714567818671    2.71974031599393
H         6.71334292915306   11.28149434382817    2.99957693586553
C         6.86880976728581   12.60107644833936    4.68392770374874
H         7.72223211536725   12.07523808269631    5.13751026496575
H         6.97724548677816   13.67732080737508    4.88538334769449
O         5.65867068861020   12.12263412147247    5.22355027441029
C         4.19168437056499   11.64030232382633    6.98642240995430
C         5.45430633978971   12.19846777537001    6.56203686575228
C         6.32113015955924   12.73556029480425    7.47821360474742
H         7.26412965207453   13.15444587030842    7.16218605185748
C         6.00603051169204   12.75628344224003    8.84829978221557
H         6.71271557039085   13.18969793130693    9.53927048587119
C         4.82877475324057   12.23535443379433    9.29190694609717
H         4.58240778254630   12.24546296615661   10.34387593048329
C         3.90484671141681   11.66882622284857    8.38322881174947
O         3.40831640192363   11.16104065825849    6.10048347180280
C         2.68321928532119   11.13723091679198    8.85330522333093
H         2.49829678598012   11.22433405749132    9.92634211357694
N         0.24460564468336    9.30538957283349    6.51411138561648
C         0.53229322225405   10.15092578274231    8.75559486496376
H        -0.15642471105882   11.00580469981616    8.77168271605142
H         0.70327143451363    9.82338259694234    9.78851595650045
C        -0.06894021303107    9.02701805058813    7.90932779785371
H        -1.15179495226686    8.94728524886180    8.06564023986737
H         0.39371376507280    8.07106707910287    8.18757572381546
N         1.77518202547018   10.56892071982218    8.12088989190176
C        -0.52292444961469    8.80428201925193    5.59551976217935
H        -1.40460266082615    8.24251207785623    5.91201028779038
C        -0.31752849408988    8.91468365381740    4.20216793943302
C        -1.25154279992115    8.35334861472588    3.30048531794577
H        -2.11887863976648    7.84821492315548    3.70022882511303
C        -1.06036570927845    8.44970005764789    1.95582144422632
H        -1.77084110736353    8.02169425706331    1.26536204879481
C         0.06902127716704    9.11264934436693    1.44426504037542
H         0.18789542530662    9.17274957635229    0.37335348085793
C         1.00050268251450    9.67020240529301    2.28137145810804
C         0.84212603712276    9.58652916232615    3.71455019306049
O         1.73753486282645   10.10890502998346    4.45855245738558
O         2.11822580797958   10.33479148315166    1.89674909613206
C         2.36954526511403   10.52218529946578    0.52340700153685
H         1.53202537571932   11.05804574729458    0.05226308580274
H         2.48626516360709    9.55039991664210    0.02063696577307
C         3.64902404102696   11.33580784743331    0.40387379890418
H         4.46447681056253   10.80817636487230    0.88996520992100
H         3.51953892791766   12.29453977655775    0.89788552122122
H         3.89427243628112   11.49776794746950   -0.64227755186563

