38
CSD_code = GECFID | q = 0 | S = 0 | Stoichiometry = C10H18N3O6V | MND = 6
V         6.81485310166657    1.75302485019670    1.56486154183255
O         7.14865018087682    2.06539709590749    0.09765794064540
O         7.41041311971733    0.38820679654793    1.95370547515790
O         7.66046773769943    2.98735801277822    2.52882749130501
O         8.03305322774057    3.81405471371999    4.55241026866237
O         5.80758662506687    6.74369070332382   -0.23250888765302
O         3.91823310839461    6.02959441385579    0.70926891565321
N         5.04431695791289    0.81846944860926    0.95998978284863
N         5.53575726126815    1.71614049744208    3.42319176333131
N         5.12460829002340    3.53656929886513    1.38051492078887
C         4.22091563457437    0.23009928380282    2.02005654966427
C         4.93857146596866    0.39022191860249    3.37015364579058
C         4.55213380103758    2.77153020582144    3.64802024839087
C         4.81456240102693    3.97789073470430    2.73589461230318
C         3.96682909098763    3.00691162519418    0.66131200150022
C         4.32280737601296    1.66140967006035    0.01189329654998
C         7.54990103841745    2.99161894781930    3.80298014044171
C         6.66470980479617    1.84161983976153    4.33258607875887
C         5.84088036785485    4.55092675217807    0.62209291340312
C         5.06329925624398    5.83004296823698    0.39031281730252
H         6.36430051897561    2.02380574201537    5.37541274801899
H         7.28331873363439    0.93974109707648    4.27859317808744
H         5.52622222462984    0.08268978154943    0.44575596336282
H         3.25348343541556    0.74003756255221    2.04312114676641
H         4.03194750423220   -0.83385358355945    1.83468983118573
H         5.74758013296832   -0.34292421497378    3.41678024642477
H         4.23783033190667    0.20733158395222    4.20123561783508
H         3.54927968781146    2.37930687786418    3.45912549398898
H         4.57425175857219    3.11423244699632    4.69240673026883
H         5.67498230432965    4.53310286993921    3.11708000185425
H         3.94367395336840    4.64889426819836    2.76141516962614
H         3.13317709512110    2.87948258291833    1.35606770019668
H         3.62462638008128    3.69769886061125   -0.11670666890589
H         5.00056631699529    1.83876940719692   -0.82779604091766
H         3.40936877442519    1.16846864085838   -0.35386475145933
H         6.77507773177298    4.79849279570201    1.13685333423801
H         6.14044778983954    4.12933395303747   -0.34318882271715
H         5.30951547863282    7.56501155063669   -0.37330239453099

