47
CSD_code = GECGUQ | q = 0 | S = 0 | Stoichiometry = C18H24Cl2N2Pt | MND = 4
Pt       -2.12123321407298    1.62230398529824    4.74619149732156
Cl       -4.29293015710229    1.05424944512359    4.91103564638892
Cl       -1.95047468988660    2.00690510201519    6.95871121371400
N        -2.14691766080396    1.12381181011260    2.68397134795958
N        -0.05893936181795    2.03599551649008    4.38603643898262
C        -0.75171293764096    1.08786694569783    2.21809974652779
C         0.10872212408461    2.13833750792887    2.93124440860234
C        -3.11101169717482    1.89374844249423    1.85974912794060
C        -2.84155559842822    3.38953380400450    1.93946789453390
C         0.54622270563907    3.15195534403589    5.15310613676455
C        -0.25801096311553    4.43187658776124    4.96197339555236
C        -3.17089555821311    1.31252468256712    0.46390979386105
C        -2.53209778755072    1.87736695533381   -0.63212404964842
C        -2.58387722523159    1.26025350936211   -1.87160523938183
C        -3.27136400856590    0.07097266810217   -2.03169694196157
C        -3.91619987993868   -0.49908869887795   -0.94614963451683
C        -3.86373269932636    0.11697555329797    0.28974026113750
C         2.02344471092400    3.25233811977039    4.83917334993228
C         2.86793690872334    2.26952118269135    5.34939608531429
C         4.22064351787663    2.27729909957671    5.06583194838630
C         4.75377225063052    3.27379091152988    4.26504489157289
C         3.92524190762663    4.25863462829269    3.75755434975467
C         2.56906934107488    4.24717720831910    4.03918878519135
H        -2.51383500020336    0.17164657232199    2.71107946398517
H         0.39334109486458    1.17555915583135    4.70342938656680
H        -4.07988542488399    1.71622086615696    2.34547984975217
H        -1.90892253914905    3.67695735633417    1.46228920762380
H        -2.81538090091339    3.67661252000254    2.99285679869912
H        -3.65369489764695    3.92743764285889    1.45751089577409
H         0.43137764057620    2.86470880760508    6.20623947993585
H        -0.23714955353282    4.80459078479083    3.94169973327792
H         0.12948416439779    5.20378845778022    5.62072923229327
H        -1.29236465730107    4.22670527822713    5.24564973960524
H        -1.99835903101394    2.81070981703502   -0.53559734780533
H        -2.08345718535795    1.71344449113874   -2.71473466265855
H        -3.31011765726264   -0.40729680735064   -2.99877422636125
H        -4.46319480130354   -1.42245365657941   -1.06411067278516
H        -4.37799354891532   -0.32405765284988    1.13251896097419
H         2.46012060137216    1.49758756846568    5.98794979122605
H         4.86014148628747    1.50893428759644    5.47425076872461
H         5.81026623881401    3.28465223140995    4.04325420584281
H         4.33467621811211    5.04251048595167    3.13772920511642
H         1.94347685857722    5.02817628342861    3.63645654265809
H        -0.69684349537431    1.24171765199048    1.13414313202359
H        -0.34064342510045    0.09665739797425    2.43552025457791
H         1.15996581346444    2.00466719892563    2.64084749337891
H        -0.20170802621896    3.13707295002410    2.62913231364538

