131
CSD_code = GECGAW | q = 0 | S = 0 | Stoichiometry = C60H64N4RuS2 | MND = 6
Ru        4.78453161538659   11.20023044226154   11.93421864328736
S         2.62088332555192   10.21371221391891   11.38555371821223
N         5.85830788080625    9.70892552093197   11.05574015460909
N         4.61380018019555   12.12977803945281   10.13226512979139
C         6.45249278459071    8.66690639319360   11.69297001894765
C         7.18435266388238    7.86180851078287   10.74148937778792
C         7.02065461914582    8.45413105822808    9.52562403771640
C         6.18576224164655    9.61370373275346    9.74188370090200
C         5.82585232012143   10.52151970300450    8.75906301729100
C         5.10610068360296   11.68947187154174    8.94598368541270
C         4.76637597412035   12.62318293889581    7.89593673941846
C         4.03388518854460   13.61250758144334    8.47775228598213
C         3.93853181094647   13.28116259166701    9.88276743849652
C         6.33959469934355    8.38534879025841   13.04702396972937
C         7.99941835457793    6.65752061693128   11.08115474985606
C         9.37272325360512    7.06080487942148   11.62434089708275
C         7.57093593620398    8.02377218650165    8.20622726734864
C         6.53929048460007    7.22812308768838    7.40434694446708
C         5.13123742077761   12.46144605361330    6.45764270213597
C         4.17462645037839   11.49669620727403    5.75210577010176
C         3.47049609441626   14.84172728430143    7.84418228175527
C         4.38398192696863   16.04708692066443    8.08029836169198
C         1.90536372932871    9.80900775333576   12.97631593913776
C         1.13879100635639   10.83584434028781   13.51856845087465
C         0.58503929704633   10.69692357510535   14.77617039516921
C         0.78185784007952    9.52951934303656   15.49533949265108
C         1.51349749204680    8.49665483009189   14.93716863461239
C         2.07269706269599    8.62637210913680   13.67734596430517
C         2.92553495195682    8.69646042723086   10.48555454979870
C         3.68055668250632    7.63573544642562   10.96070343030984
C         3.90577263291622    6.54128824259908   10.14371018242196
C         3.39479930646929    6.50719668436718    8.85801367435557
C         2.66231212783561    7.58060689337402    8.37765848896159
C         2.42524775645863    8.67388236384506    9.18956906212088
H         6.15874502869026   10.30928735653650    7.75455897374875
H         6.85298315028514    7.50495779022410   13.40491314335840
H         7.47907728095416    6.05272800461125   11.82832438920903
H         8.13001342593664    6.04040628973195   10.18981865194723
H         9.95770923097858    6.18013799594834   11.88257610339243
H         9.91908430017680    7.63323161988431   10.87741738743548
H         9.26256035757289    7.67947867324562   12.51236153566343
H         7.87592474348204    8.90209653938343    7.63188943010700
H         8.45823260658876    7.40650622604026    8.36330842543120
H         6.94065372146543    6.95116098315494    6.43125982656894
H         6.26645041987043    6.32166827810611    7.93993448773567
H         5.63667039153504    7.81731688402026    7.25805009956650
H         5.09697471127504   13.43211941200054    5.95858950859216
H         6.15436060084707   12.08498154145070    6.37893622304186
H         4.45748391190371   11.36999299485827    4.70877764848628
H         4.18906235155928   10.52415616393858    6.23940701410350
H         3.15737819416167   11.88067244271471    5.79222732561572
H         3.35707299964838   14.68105356582728    6.77027954441354
H         2.47903825805460   15.05203845498496    8.25287874213136
H         3.97027201408770   16.93992992553090    7.61531877029838
H         4.50163178810833   16.23265035452130    9.14585248127388
H         5.36840907797750   15.85869270806594    7.65692771531966
H         0.99165484265958   11.74162469942621   12.94964418538089
H        -0.00054819764858   11.50259488097770   15.19303495911230
H         0.35867865067477    9.42076165572810   16.48281460095739
H         1.65799760516993    7.57744812844529   15.48519206614742
H         2.62762524469837    7.80360511813617   13.26132601210609
H         4.12420608110008    7.67219400568548   11.94189970807816
H         4.49844859187410    5.71787047956006   10.51371220760047
H         3.57601208290524    5.65098970344881    8.22558073410985
H         2.27478194163334    7.56603637122247    7.36978049765081
H         1.86373711795009    9.52185943600880    8.82756785454011
S         6.94806681056296   12.18731251479340   12.48345887669211
N         3.71009956449322   12.69117001896246   12.81255210552878
N         4.95554905748062   10.27085897625764   13.73627133784979
C         3.22778945835923   14.01401381308920   10.82105482338441
C         5.63056347246163    9.11931865517398   13.98572014066414
C         7.66514622622531   12.59119783099311   10.89322500882421
C         6.64174897085594   13.70563955179537   13.38101786219779
C         3.11452528408134   13.73222208741187   12.17502967655923
C         3.38287214496727   12.78654471193076   14.12644173458264
C         4.46466677266036   10.71206006041719   14.92281696454534
H         2.71364894073451   14.89388251096619   10.46296680510514
C         5.53690147946540    8.78903702034686   15.39109893293281
C         8.42970196148386   11.56305181590965   10.35061709950531
C         7.50142330951295   13.77500735424023   10.19332594278215
C         5.88582557166952   14.76467516216930   12.90347484878578
C         7.14157035069053   13.73118842765482   14.67709207501164
C         2.38171868676571   14.53667514957796   13.12630743416317
C         2.54656748297622   13.94514839455745   14.34240833293292
C         3.74444507296263   11.87974743979403   15.10959976343426
C         4.80557544546663    9.77908957038441   15.97314195318296
C         6.10086813222939    7.56022569945851   16.02495897819715
C         8.98463501896504   11.70179166531376    9.09352465196988
H         8.57445840770567   10.65650084557290   10.91891511144587
C         8.06172769288055   13.90449251542625    8.93396739110066
H         6.94862967647526   14.59889556177261   10.61001483742712
C         5.65905284124164   15.86038989528724   13.71834738005324
H         5.44293945867547   14.72592416396805   11.92199036395178
C         6.90304102160025   14.82577859193242   15.48679246902773
H         7.70374083070407   12.88443173427562   15.04096789965100
C         1.56491277304690   15.73967433764142   12.78627812023301
C         1.99618017565910   14.37548612782787   15.66176664702454
H         3.41233672433560   12.09246075140942   16.11426426294872
C         4.44278944456191    9.94207502772477   17.41182144331112
C         5.18631472369540    6.35506367308700   15.79200954236092
H         6.21646130084492    7.72205692665854   17.09845834338964
H         7.09142423496593    7.34894255511280   15.61458829400440
C         8.79107512751239   12.87029846539843    8.37526153847216
H         9.56873284290113   10.89518059193347    8.67639747984605
H         7.92007110512626   14.82466324509770    8.38681246211880
C         6.16950017020952   15.89743316692959   15.00416214339941
H         5.06564981794582   16.68249154260725   13.34653473042364
H         7.28994874556658   14.84258698870399   16.49488298906914
C         0.19236139433242   15.33420639813537   12.24281744782777
H         2.08450518840652   16.34513837715378   12.03913067214528
H         1.43317174013712   16.35672644588215   13.67748430249093
C         3.02676003151140   15.17380541620204   16.46237342591441
H         1.69322888449340   13.49703779546245   16.23698540546132
H         1.10759586672107   14.99090300803321   15.50469528171219
C         5.40025768440613   10.90762205768023   18.11510473877550
H         4.47794625842163    8.97186073537203   17.91170029062677
H         3.41972201840416   10.31844844581575   17.49169751238953
H         5.60049771941065    5.46253388935815   16.25716586596770
H         5.06645134599751    6.16835886099533   14.72690243173993
H         4.20283335866564    6.54441691100793   16.21714348770755
H         9.21521332643898   12.97897052983277    7.38818969120099
H         5.98697497152101   16.75456937487978   15.63498872483231
H        -0.39392913396921   16.21393867706024   11.98435737675774
H        -0.35328841530317   14.76101929633676   12.98967928974990
H         0.30369699967170   14.71561672290071   11.35488365689117
H         2.62535346833362   15.45100747951790   17.43537490638442
H         3.29770513340157   16.08022195967525   15.92575247944791
H         3.93051542899300   14.58639124534531   16.60882886527489
H         5.11890969746917   11.03517158752186   19.15873912189527
H         5.38491248081962   11.87973980877081   17.62698793391348
H         6.41751989966939   10.52380252051607   18.07382888300075

