69
CSD_code = GECJIH | q = 1 | S = 0 | Stoichiometry = C22H44P2Rh(1+) | MND = 8
Rh        0.79612658277072    2.16449192613112   11.08375830957213
P         2.30938457703908    0.55797326790831   10.59702217683891
P         2.29250000022874    3.65455138019259   11.88847321660330
C        -1.46678255016936    1.40943035427662   12.00966720726306
C        -1.42895185465135    2.80813265142664   12.16191374636303
C        -1.19280039205292    3.60262296253430   11.01931909986309
C        -1.16070261342303    3.08170669150115    9.71223715544885
C        -1.19802612366530    1.68298861107724    9.56005971045330
C        -1.26556419381739    0.88202714722487   10.72040884812197
C        -1.81648133273750    0.50742280437419   13.15365220912466
C        -1.79765890345114    3.45328682821200   13.46265024345886
C        -1.19558769385130    3.99860582866574    8.52795748393269
C        -1.33594836877472    1.05707686385087    8.20606556425811
C         1.45792586163406   -1.04777366934307   10.24117625765170
C         3.29300717011288    0.85893312602299    9.06568442624314
C         3.62961235880714    0.06692655643131   11.78498352740901
C         2.34436390086204   -2.23252846558118    9.87715966227072
C         2.38191822354662    1.28291990190477    7.92148517806596
C         3.03051128876712   -0.45596968865336   13.08470968512598
C         1.50983220367380    5.32300573349042   12.07230158520792
C         2.91019402907318    3.29177590375713   13.58844295997451
C         3.86436195921117    4.03456773155778   11.00516269037611
C         2.38828948997386    6.43972307051474   12.62288773562728
C         1.75151578231273    2.94771101031479   14.51478964553110
C         3.59019470633599    4.59119561916256    9.61354239514303
H        -1.24158742604405    4.67945956592668   11.13298174209797
H        -1.37131840211822   -0.18886893285522   10.59051335834328
H        -1.18561165317366    0.69367890040966   14.02127642976252
H        -2.84903294061062    0.68464464596250   13.45538844091195
H        -1.71752172782437   -0.53721098697128   12.87026704657088
H        -1.62116810450694    4.52567319483925   13.43585112393817
H        -2.86027594353745    3.29134630752036   13.64815861926536
H        -1.25258239453646    3.02569219128783   14.30103515503969
H        -0.41677929980609    3.75579775899145    7.80684793379138
H        -2.15493080501726    3.90081725520221    8.01918764403428
H        -1.07485978907688    5.03460756622099    8.83374705735445
H        -1.24975014045260   -0.02528477841702    8.26051735377507
H        -2.32169461180314    1.29672571196877    7.80524816316095
H        -0.59819368620531    1.43591543415859    7.50248029177798
H         0.76011713406963   -0.84884355801901    9.42399097817026
H         0.86677997457184   -1.28591843949562   11.13003390764934
H         3.85835762538301   -0.03820401268201    8.80807082691918
H         4.00834381652956    1.65281964429101    9.28460503512555
H         4.24085521091803    0.95174716919480   11.97620674466969
H         4.27160244885755   -0.68173693499839   11.31612701873362
H         1.71762664574124   -3.10015956964948    9.67963625645881
H         2.92761852206720   -2.03646730414209    8.98151076558448
H         3.02218627735258   -2.49142723892707   10.68555064909606
H         2.96107130774567    1.66962804993864    7.08630330446707
H         1.78983622396638    0.44374572195940    7.56457602528293
H         1.70378956279403    2.06651266529130    8.27094155036458
H         3.79097491905700   -0.53096190249772   13.85833311990178
H         2.24606647703470    0.21678677873927   13.43006160756035
H         2.59566486018209   -1.44207709984035   12.94436542655853
H         0.64394966069429    5.18402154526957   12.72439470634774
H         1.13679395877148    5.59848654822365   11.08174413475989
H         3.47630534678369    4.14529380776846   13.96509085042318
H         3.59277976596033    2.44395401162575   13.51671185511031
H         4.43305371800352    3.10441013849813   10.93810506204621
H         4.44967077611861    4.73597716802458   11.60340402814677
H         1.80200435286347    7.35408882628064   12.69216563910361
H         2.75502804934173    6.20707564378668   13.61897801959111
H         3.23765501175959    6.63979583945563   11.97595839630946
H         2.11323287489663    2.52497602796224   15.44910617439025
H         1.16375875332996    3.83237781663479   14.74729662072685
H         1.10329382502044    2.21509732178497   14.02587045082452
H         4.49839395835730    4.60220661922249    9.01564807881268
H         2.84603799217909    3.97717665189255    9.10713561413581
H         3.21172376661677    5.60852008321716    9.66836607300043

