32
CSD_code = GECLAD | q = 1 | S = 0 | Stoichiometry = C13H17BrIr(1+) | MND = 10
Ir        2.63359619336099    2.13965841710480    3.66965232102882
Br        0.65599009102093    3.31968398359987    4.76049231605985
C         3.25442599645878   -0.09418159915637    3.91713431580738
H         3.22648208514006   -0.88361607950988    3.18588935672045
C         2.20672621996119    0.25209271023994    4.80685088490901
H         1.26161976550402   -0.25815556059600    4.90252106958077
C         2.71992179965607    1.21779453633589    5.72842497167362
H         2.21833581247272    1.57148022290338    6.61445928698735
C         4.03564570089402    1.53949759018626    5.33237991843906
H         4.71818546698291    2.17508360751386    5.87321231808038
C         4.36577005099819    0.72320265702400    4.20771736555435
H         5.33888043835586    0.64393367029575    3.75401356822940
C         4.17981733565080    3.38499302259162    2.59170277086798
H         5.08995915756443    3.27801712713064    3.17376285281156
C         3.21033026367962    4.24925383052723    3.08821240972343
H         3.42656900461495    4.77625399498702    4.01548029003574
C         2.16243079338334    4.91950224869094    2.23995037470062
H         2.65009714242599    5.70654993591595    1.65811586066000
H         1.44662791746484    5.40671949510198    2.90077644234590
C         1.40443272498865    3.95644817267830    1.30407550141100
H         0.38607390588022    4.32590649472947    1.19302884772936
H         1.85948613531420    3.94304819817897    0.31323049542109
C         1.34070007317968    2.53415777640503    1.81403423226694
H         0.33795756044033    2.18519177456815    2.04813924355850
C         2.28811129920153    1.55787211520299    1.52481348378091
H         1.94069074374164    0.52798860007402    1.51887910635329
C         3.55125358226290    1.77115114975888    0.73706936733039
H         3.28402863202223    1.80069431444152   -0.32393491795947
H         4.19712705276596    0.90249792192477    0.87106808820303
C         4.32027074837167    3.04319316281621    1.12753223282777
H         5.37567379770568    2.89438913254742    0.90027644144428
H         3.97748250853561    3.89319737578736    0.53833918341726

