74
CSD_code = GECSEP | q = 0 | S = 0 | Stoichiometry = C29H33Cl2FeN5O2Si2 | MND = 5
Fe        7.70677925269659   12.62931970404459    2.40594751494263
Cl        8.04804814746048   12.91753024206618    4.49906361780962
Si        0.93698602575486   12.00989302469937    3.50712550204762
O         2.44629247925244   12.70148866557790    3.55375708962289
N         4.70860898882295   13.06069137262931    3.08683046585956
N         5.80332092532408   12.34876489264050    2.78074085666317
N         7.70680384558357   10.82022724632706    2.40603475707686
C         3.64776385455206   12.21956958185717    3.27590665524858
C         4.08983891753623   10.93085242361454    3.09344968524604
C         5.45915525526149   11.05412651544973    2.79768891977320
C         6.54971797428473   10.14101857993622    2.58523356311940
C         6.52052512761705    8.75240891287433    2.58627755569398
C         7.70673978701492    8.05488396997393    2.40583778725131
C         4.76372865160870   14.45281080725129    3.25678509708541
C         5.70243817588256   15.19327221821163    2.54309390327923
C         5.77495124245566   16.56235210827888    2.72074734644833
C         4.92308172342485   17.20149050855613    3.60610776158126
C         3.99494595652183   16.46146541090680    4.31914099227133
C         3.91241239247815   15.09131224244250    4.15373591191852
C         0.56993679397210   11.38874543789975    1.74542859571698
C         0.80473662218038   10.58854733138172    4.77100605716582
C        -0.12087449690907   13.50330031758232    4.00546239003695
H         3.50945987885600   10.03679225353039    3.17028666872588
H         5.58453045412279    8.23742989967110    2.72915392413246
H         7.70671774534137    6.97612260938117    2.40578094868017
H         6.35226070897725   14.70427136052116    1.82628899405448
H         6.49415767058025   17.13120355132980    2.15125024957576
H         4.98230093387361   18.27101308046672    3.74097476638096
H         3.33291669982267   16.95198805181343    5.01701927025404
H         3.19558242052455   14.52081732015971    4.72022227482843
H        -0.41385796468802   10.93647221588010    1.67500572567328
H         0.60729153443716   12.20471198132959    1.02872641134351
H         1.29644822802598   10.64610311543829    1.42602387979593
H        -0.23151854059632   10.36008716608998    4.99894571099506
H         1.29527101396738   10.84838756024654    5.70547831875749
H         1.26278405617111    9.67281940885888    4.40731311311145
H        -1.17650406509856   13.26802739376074    3.92681099262242
H         0.07654790581868   14.35982694618066    3.36833645537806
H         0.07139661595557   13.80568647125965    5.03031361876814
Si       14.47688658428703   12.00992862139256    1.30588758794856
O        12.96751045153706   12.70133551914965    1.25881389700106
N        10.70519640814789   13.06059820492182    1.72563887137205
N         9.61040027561868   12.34871831900032    2.03154248657884
C        11.76599116501134   12.21943805550635    1.53648895061894
C        11.32380550651969   10.93072143761422    1.71869717006775
C         9.95447586997208   11.05405609087263    2.01439591059726
C         8.86385199457184   10.14098868746080    2.22671066309097
C         8.89298294893963    8.75237473494314    2.22546965511517
C        10.65010700849196   14.45273030223089    1.55576266662340
C         9.71152815257819   15.19314964198680    2.26965589780891
C         9.63894069431598   16.56222952752408    2.09201683920715
C        10.49061853045113   17.20138636313423    1.20648990295277
C        11.41866335633008   16.46139883783804    0.49329643504042
C        11.50126794509981   15.09124784746641    0.65867427273978
C        14.84366128871217   11.38910304378365    3.06775435581613
C        14.60965919487488   10.58830595497039    0.04236357131062
C        15.53463794765248   13.50339920481629    0.80750644050362
H        11.90411767538182   10.03663102121002    1.64168672355518
H         9.82895465743790    8.23737866673276    2.08250389421268
H         9.06189306151863   14.70412283476804    2.98661318879819
H         8.91986374492638   17.13105615681610    2.66170467966313
H        10.43134337799122   18.27090773859450    1.07163067130606
H        12.08051716688010   16.95195873223678   -0.20472466477629
H        12.21798553010493   14.52074515242913    0.09204412525367
H        15.82740559095409   10.93674527042669    3.13837802965506
H        14.80629737734043   12.20520732874320    3.78429766289720
H        14.11703371025751   10.64658796185741    3.38719703795165
H        15.64599788303075   10.36019087590249   -0.18554539327246
H        14.11899759268852   10.84767782657369   -0.89216938219784
H        14.15200167827126    9.67249050162825    0.40632988303225
H        16.59029209518837   13.26829154139809    0.88633224096672
H        15.33700118906588   14.35997140805662    1.44450468454614
H        15.34246083734176   13.80564064332451   -0.21740571107755
Cl        7.36592856970856   12.91775404490993    0.31282340614347

