91
CSD_code = GECVIU | q = 0 | S = 0 | Stoichiometry = C35H50N4OTi | MND = 9
Ti        4.67525750781159    0.53045232207138    1.52172347019619
N         6.39005732372573    1.52211778928095    0.77400672531464
N         4.32559485219951    2.18267537010228    0.43416391154994
N         5.29447651257742    0.82570148968193    3.29714920200932
N         3.64188568560660    0.99193397286602    4.92750799014581
O         3.21962206960255    0.77334627420437    2.63101401617738
C         7.83774597879081    1.62183153312799    0.71244038663169
C         8.46726337401998    0.43592265038922    1.43940447964643
C         8.34001992457130    2.91489716927291    1.37278816978886
C         5.60393214838311    2.34503572517022    0.11206380175093
C         6.06508063807143    3.33151248282433   -0.93942212559080
C         3.28580024076363    3.09815284915531    0.00586456797960
C         1.91820046811272    2.43856093455586    0.17973777219636
C         3.33709201491694    4.39472812578516    0.83008720219634
C         3.99199497137789    0.89946331138206    3.70352244646262
C         2.33799266694344    0.95422616674704    5.39385470824185
C         1.39165134631220    1.95272440797842    5.12287870175210
C         0.13628033682244    1.87175943803686    5.70441008450842
C        -0.19530776166655    0.83070051584016    6.55191524654613
C         0.74876566992327   -0.13957306199018    6.83914571566638
C         2.01217112478276   -0.08822219940306    6.27775044702262
C         1.74555039553226    3.11359679104200    4.24087260706247
C         3.04277911417018   -1.13220442453758    6.59038875756480
C         6.30375418256616    1.24443185164178    4.18179839426194
C         7.06562390230206    0.31880428592171    4.90556445689045
C         8.08715547903186    0.77127126710811    5.73009865164671
C         8.34576948320765    2.12143986071320    5.86615655034342
C         7.55782816524189    3.03858661657951    5.19283111811904
C         6.53357745190943    2.61893104592253    4.35846086698180
C         6.75738371885931   -1.14743600377183    4.83306480984563
C         5.65182528276253    3.61051587027592    3.66146872616239
C         5.38521299908559   -1.64045200082218    0.97547956314739
C         4.06260741265576   -1.68554690574367    1.50621843542859
C         3.18147345412434   -1.06999608407225    0.57009369351586
C         3.95562074902865   -0.60935410365330   -0.51662657548129
C         5.31238501834610   -0.95576495623119   -0.27023234412758
C         6.53128543823384   -2.49590501209418    1.45058238507651
C         3.58900676088680   -2.43333531314590    2.72037345037158
C         1.68986423615638   -1.08800408788670    0.72107268735357
C         3.47270142218363   -0.09774038222090   -1.84448841473295
C         6.37398481508298   -0.86269270042241   -1.32889254992582
H         8.17881759682820    1.60480211495471   -0.33893228825168
H         9.54188870179797    0.58264640143611    1.52417203254097
H         8.04173548355791    0.36304999347476    2.43847955044697
H         8.28735609808520   -0.48812156329164    0.90095779375428
H         9.41502637609782    3.00603230588248    1.23343672693739
H         8.12689232047516    2.88168790142249    2.43805562112390
H         7.86285024654505    3.79403324349182    0.95008254363374
H         5.38352521348673    3.30985537242682   -1.78897230893923
H         6.07628703870451    4.34684166936048   -0.54777548468015
H         7.06327672475901    3.08633739553131   -1.29051402171386
H         3.41714843668756    3.36146230284108   -1.05905861178345
H         1.12897121047243    3.18173113549517    0.09088283027494
H         1.86671008330508    1.97393287406129    1.16340590779895
H         1.76191357979478    1.67592806655334   -0.57654326921498
H         2.58248107415409    5.09255365541246    0.47441445631983
H         4.31076259216131    4.87341074216032    0.75598638318688
H         3.14279110665916    4.16927606847175    1.87581387359095
H        -0.59359418453169    2.64063717126085    5.48836128220411
H        -1.18019466643794    0.78088946484751    6.99333868039462
H         0.50197294250293   -0.94893866398688    7.51298063690265
H         0.85306173394033    3.66268047442060    3.94720700898700
H         2.41217111997561    3.79608643299513    4.77201280250176
H         2.25905757094335    2.76070708014158    3.34749177102614
H         2.79991999834912   -1.65128452105802    7.51513904994155
H         4.01869513362114   -0.65862416197510    6.67650005498031
H         3.10060619576533   -1.86781331335579    5.78691762661774
H         8.67504331449401    0.05009897875351    6.28044151956582
H         9.14459650472800    2.46056549813357    6.50889155156256
H         7.73631008548216    4.09735082491595    5.31996638255224
H         7.64270273563582   -1.72211808365138    4.55989177305658
H         6.42053972951446   -1.49954168650312    5.80769506970839
H         5.96170061683908   -1.31784051156817    4.10927128011081
H         6.13149364339370    4.58570429441126    3.59987353863824
H         4.72248828540830    3.71611527452349    4.22257325373406
H         5.40152877072358    3.25171238028870    2.65852464051413
H         7.16949335358827   -2.76447390498499    0.60923274137390
H         7.14732847863345   -2.01166006962874    2.20630431809946
H         6.14264630263475   -3.42250547112393    1.87483045656135
H         2.98038559586515   -1.78648643777141    3.35665472448815
H         4.42272020222064   -2.81649183556946    3.30730514263289
H         2.96701448837461   -3.28061310561995    2.41783102726581
H         1.19249305484220   -0.63339138487966   -0.13215676369180
H         1.34035078879514   -2.11924073979183    0.80894367501886
H         1.39055652155262   -0.55481550382696    1.62511975336082
H         3.85581549914725    0.90071221812109   -2.06105893744938
H         3.81765636296619   -0.76307149352728   -2.63974618653096
H         2.38624931292948   -0.06952453843427   -1.88562696774278
H         6.40876052300997    0.13513555885878   -1.76742068600749
H         7.36080302956867   -1.10045901948107   -0.94056536726310
H         6.15052649693956   -1.56915376629145   -2.13400877783565

