28
CSD_code = GECWAP | q = 0 | S = 0 | Stoichiometry = C11H10Cl2N4Zn | MND = 5
C         6.04448445258264    3.21231683237587    6.61922329351762
H         6.18994195145937    4.28149106378477    6.68340076014272
C         6.48587631854970    2.47557837600140    5.53528262175357
H         6.99084427493436    2.95972353826959    4.71599562206827
C         6.25262101633782    1.10547841084900    5.52449570721176
H         6.57185630824311    0.50002838315828    4.68976532792056
C         5.60395248858949    0.52385067717996    6.59554877077343
H         5.40080433431246   -0.53538192630831    6.62407589798714
C         5.19989119712068    1.34875457181439    7.64618196400684
C         3.38830247438108    1.38071877832867   10.65835593544105
H         3.01208179849861    0.37890628903640   10.86519325911307
C         2.96880811939099    2.48572468389881   11.49577639267107
C         2.21361355232164    2.29894463583274   12.65335376908915
H         1.93792938412026    1.30254804880279   12.96266551171580
C         1.82826860108790    3.40807337164657   13.38552428578544
H         1.23994748875021    3.29217741539407   14.28358596850423
C         2.20928005858419    4.66717731239166   12.94672856423047
H         1.93015535903360    5.55551022952279   13.48979643283001
C         2.95488740203230    4.76527919262632   11.77996512368081
H         3.27590320526052    5.72145691669085   11.38980106373991
N         5.41539517793448    2.66192964261328    7.64835991241414
N         4.56221517222084    0.82696337563765    8.75316680667593
N         4.14025114159082    1.66570764336363    9.67220554557903
N         3.31778118263765    3.70863051577708   11.07729632138332
Cl        5.01783896659770    5.75327724270366    8.98176026027107
Cl        2.19003781063977    3.16472294387996    7.90603005110520
Zn        4.06060367336591    3.76936937636164    9.00834425617963
H         4.22602708942248   -0.13545754164083    8.71932057421961

