31
CSD_code = GEDGEB | q = 0 | S = 0 | Stoichiometry = C14H10MoO6 | MND = 6
Mo        1.36820814176354    3.33653858859168    2.65615802661532
O         0.49972633345060    3.44492802911207    4.04574511640199
O         2.97131688080914    3.16182401097374    2.96686698218096
O         1.38623998882914    5.23767113399163    2.23480147538500
O        -0.47155315204903    3.71470881814326    1.57027209741468
O         1.82854981777208    3.08161049902647    0.55163739367704
O         0.99396958620547    1.46737388627126    2.25747110914104
C         0.29654736275671    5.85344010129050    1.92717889610643
C        -0.78869299144383    4.93785348072288    1.53761925633982
C        -2.08795125980973    5.32329727320701    1.13530985055750
C        -2.64103056047508    6.57683195417974    1.02926202255929
C        -2.07213317730944    7.82529460803554    1.27698552764859
C        -0.78845523767062    8.11257390485094    1.70052810420780
C         0.25806229447516    7.24751935433696    1.98301600349245
C         1.98097629310144    1.87254728795661    0.21597469195829
C         1.49255944996537    0.90370057531260    1.21118965648465
C         1.51113041866898   -0.48936294265137    1.12666905201612
C         1.98928725658803   -1.30474785706718    0.11196535497635
C         2.56799298008192   -0.95488792199302   -1.09327312893255
C         2.82069871521444    0.32235018769041   -1.59168612560558
C         2.56353247283916    1.55040497692637   -1.03113910961535
H        -2.72475885606134    4.48037579667858    0.89395704231620
H        -0.56287732329869    9.16379470856690    1.83206739147152
H        -3.67506807651888    6.59932294762030    0.70589163564669
H         1.09507973060988   -0.97925994908341    2.00001360255041
H         1.89468175834698   -2.36812826121439    0.29499308198120
H         1.19237032279028    7.69140159339501    2.30836421486901
H         3.29068442507336    0.34974106958865   -2.56774826827745
H         2.85220493400886    2.42451698814615   -1.60290099087314
H        -2.72238019216740    8.67583566801583    1.11921318384310
H         2.86708166345650   -1.77487051062034   -1.73300314654103

