30
CSD_code = GEDHEE | q = 0 | S = 0 | Stoichiometry = C11H8MnN7O3 | MND = 6
Mn        0.79542066036784    2.98984580654539    3.34974003807808
N        -0.92721368862231    4.00967318345061    3.14354793981343
N        -1.77045438857957    3.45514945491837    2.26964978665692
N        -0.27949250801450    1.74675969089621    2.13622512155954
H        -0.07460080440235    0.81726618812434    1.77342405438848
N         1.30536509906092    3.90184705240234    1.52049278903479
N         1.63772279249024    3.21633711611646    0.42278481900519
H         1.72668051026140    2.20928979307353    0.44675574355143
N        -2.25804504707226    1.76569425227046    0.80203955972124
N        -1.97983039616367   -0.23345939273778   -0.58476138894294
C         0.23432270589643    2.14969560386895    4.82081058179436
O        -0.09989063287532    1.59835033689138    5.76782731431630
C         1.63382790132495    4.22509462346846    4.32798815290898
O         2.18348528992064    4.98640956465664    4.98947113401141
C         2.25281420687667    1.96349844072343    3.34245085559367
O         3.18568379727485    1.29304311136481    3.37701642836134
C        -1.42267014752649    2.21677135292474    1.68651898638506
C        -2.07437378301108    0.68487695359530    0.10578571582277
C        -1.49555377703323    5.13290144132140    3.55304345310486
H        -1.01585592744097    5.76907688716272    4.27332450366077
C        -2.73370867124589    5.30067481531794    2.92393362918395
H        -3.42343297185858    6.10824530312360    3.05467856588591
C        -2.87645064422069    4.20192244200222    2.10875709737308
H        -3.65823666240172    3.89754040750177    1.44321498798618
C         1.26459005561154    5.17649502997082    1.15992442231299
H         1.02716917431983    5.94950340709510    1.86667201342778
C         1.57322225562763    5.30842519795248   -0.19640082735350
H         1.61774128874633    6.21273517116501   -0.76568649934996
C         1.80723396359437    4.02510999872530   -0.63451873782663
H         2.07263034909293    3.64962676610945   -1.60161024046719

