42
CSD_code = GEDHII | q = 0 | S = 0 | Stoichiometry = C15H16MnN7O3 | MND = 6
Mn        1.45900059893679    7.33172802236049    8.78122847228255
N         2.17891617613057    5.43096025521188    8.99889752623822
N         1.96042643498795    4.95562216518148   10.24009515602499
N         0.52131850268629    6.69485492253855   10.46577930858006
H        -0.13212606641664    7.18775210117498   11.07256696552932
N         2.95240554817805    7.89079647291252   10.26901545423568
N         2.52339812776626    8.45678643796823   11.41468489058266
H         1.59530532184031    8.84758847959062   11.49419275522897
N         1.15381218829801    5.39951398051417   12.35625802893027
N         0.40310372869200    6.85197904777722   14.17420086502903
C         0.15420285938271    6.80653156038500    7.69054545134587
O        -0.68901477128234    6.50752735535512    6.97164594243327
C         2.43716730772488    7.87377961141210    7.39497716125894
O         2.99226015631409    8.29416377064710    6.47677999114747
C         0.72676300318727    8.95226304329547    8.82526305329288
O         0.23209921755000    9.99069404249032    8.80941707619825
C         0.68987192516287    6.17412921206248   13.28430647407431
C         1.14902287623726    5.72631877276266   11.09402438054633
C         2.88188364775323    4.51161559676365    8.35191097217691
C         3.12970344535044    3.43010436794047    9.21237278560047
H         3.66981423366242    2.53596220000994    8.97688803107925
C         2.52784540693712    3.73910475051311   10.41347097504335
C         3.30196856304317    4.65173295543470    6.93442387901260
H         2.74108316344390    5.45083394515857    6.45252558562892
H         3.12437522212139    3.71917830805873    6.40288453514363
H         4.36607078983374    4.87792944603821    6.86919411274179
C         2.45977588587723    2.96951386190775   11.67517850037590
H         2.93807025155789    2.00294575723114   11.54122782884086
H         1.42424670872839    2.82380313604287   11.97881391193599
H         2.95531761914573    3.51135442655891   12.47979339595985
C         4.20196656931426    7.49895455180302   10.50055847671542
C         4.55621416867351    7.80450579651273   11.82325062107748
H         5.49503236072326    7.59986450717487   12.29438445937149
C         3.45358739124037    8.41309017641372   12.38580585325171
C         5.06443283859500    6.86114772502696    9.47154984707813
H         5.17127136202704    5.79345439371177    9.66601984194570
H         6.05659202004418    7.30758843606913    9.49755554808377
H         4.63460111681999    7.00067813720994    8.48137271598178
C         3.18426009668006    8.92197918716718   13.74931386357824
H         2.34933562867133    8.37249926227156   14.18976892908820
H         2.91652089660108    9.97740138475372   13.72115884005378
H         4.06099747777939    8.79546843658439   14.37689753728876

