59
CSD_code = GEDKOR | q = 0 | S = 0 | Stoichiometry = C20H24CdN6O8 | MND = 6
C        -3.07243224626675    4.15979387290459   14.52927938228916
C        -2.03903874923256    4.28345404875224   13.32949795542141
C        -0.69217371147638    4.48790823663928   13.59528919928169
H        -0.38968414373137    4.58477326754919   14.62743460121473
C         0.22271096673999    4.56015485300063   12.56413007913972
H         1.26763102776661    4.75685856389456   12.75909354560849
C        -0.22588739748185    4.41156777552181   11.25509707851424
C        -1.57480483919291    4.21862463394459   10.97216146796470
H        -1.89683945261868    4.09718789620662    9.94635077247653
C        -2.47483071147299    4.15874286323824   12.01723823128668
H        -3.53077257426073    4.01110100035627   11.84623638580116
C         2.45480559523077    2.86404612327111   11.06071764724171
H         2.99383762607827    2.07387698088364   10.53799811345730
H         1.65810597048888    2.43380847471797   11.66452575430091
H         3.15058934764019    3.37189192173363   11.72915283223501
C         1.88374535074275    3.80502124659392   10.07583881433754
C         0.55722606619385    5.13964003870836    9.02429175553270
H        -0.27984346482784    5.76572286278762    8.79384270571568
N         2.42286595901207    4.10092781186082    8.89561970322463
N         1.58118970195835    4.94323172711681    8.24064584527899
N         0.69766477795182    4.45637407145004   10.18341938030573
O        -2.53204770092525    4.06675995450346   15.62929995056780
O        -4.24715271435310    4.16409731854330   14.17206806884350
O         3.29841122155264    1.95446735986963    6.68908924374579
O         5.28467223942120    4.81789737058544    9.91902629741044
Cd        4.23613292485905    3.68199770977245    7.97657111549601
H         2.95121601480107    2.44229473649776    5.92922911921364
H         2.56650481738344    1.43441919780353    7.04241077241485
H         4.96748989284554    5.62291254688121   10.34170504353763
H         6.08112335724655    5.07329305614246    9.41025332081397
C        11.53738951332511    4.15129004962970    1.42176406508017
C        10.50689107582955    4.28232490088087    2.62342330747373
C         9.16108245257936    4.49633167184301    2.35973043028230
H         8.85799897553520    4.59717620724400    1.32813834686274
C         8.24795142611921    4.57199656615058    3.39216213924086
H         7.20400242546774    4.77583486850037    3.19914063386727
C         8.69714193996677    4.41703594656136    4.70029319738607
C        10.04510923076384    4.21516195480449    4.98121453493073
H        10.36759631446096    4.08942899210363    6.00636888647169
C        10.94346814298383    4.15192370762854    3.93484692067670
H        11.99864548363416    3.99721624507376    4.10432067034834
C         6.01179879798233    2.87871138414366    4.89130858964963
H         5.48187634055302    2.08150948857040    5.41275099403707
H         6.80555707759013    2.45738635299031    4.27751468856529
H         5.30702508043588    3.38767686389384    4.23318316347618
C         6.58617010884228    3.81531623854061    5.87841586032049
C         7.91752581365957    5.14206302634814    6.93383462912024
H         8.75692321532757    5.76436501012654    7.16605448110928
N         6.04810089227651    4.10978079934564    7.05958877225001
N         6.89291812215266    4.94709837045820    7.71703332259414
N         7.77449678406702    4.46278246246973    5.77271262795279
O        10.99403991865736    4.06193193879445    0.32289397722700
O        12.71270259943800    4.14559114040207    1.77682586428245
O         5.18806334670203    1.97583475313459    9.27899156432986
O         3.18080784482835    4.80025087422286    6.03434925596029
H         5.52070209999278    2.47821062830013   10.03603349523059
H         5.93366503558484    1.47045175407182    8.93302392833465
H         3.49767229990842    5.60501028628978    5.61085178613093
H         2.38496248923804    5.05655999574015    6.54371568413673

