86
CSD_code = GEDMOR | q = 0 | S = 0 | Stoichiometry = C43H29F6MnN2O3P2 | MND = 6
Mn        6.08690087773245    7.31775136897268    3.97833164460773
P         4.17767071518740    6.26268489751184    4.46387239273387
P         6.84700736969730    5.31762604299340    3.32830648667627
N         8.23768320472687   10.65228646150908    5.18365373581447
N         4.95413411973083    9.53409559889926    7.54824284883920
F         6.51512442005208    7.40376115698777    9.20406330226149
F         8.57622409854102    7.29689402034840    9.76492093122035
F         7.66309787249233    9.21019099219599    9.42571181324253
F         9.92396746048631    8.13090931535854    6.01466136663059
F         9.82384854571821    9.49390167532553    7.68148280501197
F        10.41034791888056    7.45841668156012    7.98033476309217
O         4.87314771064251    9.95294047298809    4.23404092540163
O         4.88404967430803    7.68189750726140    1.35510743449661
O         8.48457961232468    8.50617368046201    2.82109061793332
C         5.35776022731123    8.91400749884127    4.23561815089322
C         5.36243674083200    7.47461910010256    2.37854066732480
C         7.57213271071139    8.04707266585224    3.33933058843909
C         6.91057117645085    7.36631875572380    5.75707467893563
C         7.18579947419396    8.71265480852506    6.53267861605900
C         8.09038030718903    7.87182999596488    7.49504067905030
C         7.59316528323277    6.66351910781936    6.70880645577914
C         7.78944576922624    9.79668913040741    5.79418140040981
C         5.96039782030134    9.19641417843463    7.12469764130312
C         7.71683270500720    7.95107099562106    8.97516827716893
C         9.56287396885340    8.23881311002796    7.29949627379289
C         6.73735018272434    4.38222508573546    6.58932190887729
C         6.77493760162725    3.04264484681484    6.91228026655822
C         7.80620998566338    2.54746508182330    7.69368939982768
C         8.78663347616036    3.40863072807844    8.15489575289398
C         8.74683678176376    4.75478737882745    7.84370748991837
C         7.72162075548394    5.26017224906445    7.04511973556522
C         4.13947997200489    4.74869952280856    3.39707837778501
C         5.49684359953084    4.05237614803911    3.39968243059373
C         2.33306456792762    4.92628695254154    6.07973337617312
C         1.77730603347304    4.55208565641259    7.28773400732333
C         2.36312962319837    4.94998825134324    8.48009592132094
C         3.50115403840409    5.73717887637416    8.46326669289003
C         4.06423524790554    6.10827372409606    7.25583183179577
C         3.49829648693663    5.68942247722231    6.05933753801020
C         2.36243700233027    8.24159231167623    4.83484846859027
C         1.30226529058090    9.07731269832020    4.54801465504772
C         0.57949160314771    8.89903563955220    3.37832484100062
C         0.92214507138776    7.88511704822344    2.50150392030637
C         1.98767964538044    7.04552929764895    2.78062020802340
C         2.71328021914700    7.21831712995660    3.95214595467196
C         6.38712851229573    5.05473078892939    0.54993237676843
C         6.75992283269507    5.14776049269092   -0.77872498851935
C         8.04800184185168    5.52454294640413   -1.11719790854463
C         8.96638216254050    5.80748747431239   -0.11974561614264
C         8.59989886896609    5.71366896105537    1.20949165998475
C         7.30626686200613    5.33056485590608    1.55832486960928
C         9.36478532416458    5.24007556858627    4.43695305333700
C        10.52337315395937    4.64572250149928    4.90029121706475
C        10.63382081380776    3.26550443446425    4.90988212367486
C         9.59072392870928    2.48412549920896    4.44123142751115
C         8.43133180620924    3.07305577380554    3.97086600945202
C         8.30762362192135    4.45768322086559    3.98215103719672
H         5.92401007575292    4.78936361347271    6.00349248293556
H         5.99314170128243    2.37956675890674    6.56783857374554
H         7.83953937962065    1.49885612861560    7.94861904588649
H         9.59018875254576    3.03177023048345    8.76950738879912
H         9.52125789181313    5.39940135173423    8.22388307946635
H         3.90621339642859    5.10087150808485    2.38617281830906
H         3.34488141551922    4.07025253263838    3.72075066640615
H         5.63271602686717    3.48855993200309    4.32609968213845
H         5.59246666739063    3.36165423163270    2.55491577910333
H         1.84763397840609    4.64304242501583    5.15516305689064
H         0.87635119704027    3.95609966460402    7.29988736340760
H         1.92151670920418    4.65526716452986    9.42014260519819
H         3.95546628966644    6.07147077989644    9.38281008341025
H         4.94505118159433    6.73118320577745    7.23967901381574
H         2.93443387750822    8.37605370001003    5.74656975782038
H         1.04326820238238    9.86980617148878    5.23331811013526
H        -0.24874525930132    9.55251401634708    3.14909396403990
H         0.36154411725202    7.74608674752101    1.58863325991152
H         2.23776469455330    6.26739528650568    2.07386501973377
H         5.37153609736427    4.77108680411460    0.78728939159381
H         6.03729909492393    4.93110357266714   -1.55185582790136
H         8.33353269385118    5.60130084357678   -2.15544205373267
H         9.97144454102943    6.10648625316590   -0.37676201311216
H         9.32269005272627    5.93435050809871    1.98256825430774
H         9.26927630051950    6.31826866743201    4.43827275341190
H        11.33533978034950    5.26101772432252    5.25732197284811
H        11.53382245931004    2.79783728844242    5.27950390442238
H         9.68117628067251    1.40786795931517    4.43955251264707
H         7.62984570604283    2.45216208822101    3.59876681807459

