55
CSD_code = GEDNAG | q = 0 | S = 0 | Stoichiometry = C23H24N2O5Ru | MND = 6
C         9.16143565592976   12.53399194534943    8.78412993074902
C         8.12853432891473   10.86551786111332    5.92650264949227
C         7.95676865154638   11.84516543904454    4.94290078467062
H         8.29215569692227   12.84943467021352    5.15075283320163
C         7.39497317246046   11.50628366002278    3.72908907054150
H         7.27530342494865   12.25991694864448    2.96477625120508
C         6.98661714067819   10.20287584300321    3.48678239017745
H         6.55002278579407    9.94299981014303    2.53383534718038
C         7.13159248240100    9.23589450510254    4.47047778753827
H         6.79780682092504    8.22580014775590    4.28497918479359
C         7.69765153149567    9.55704102604146    5.68846274594210
H         7.79587405593387    8.82231969901384    6.47399428105478
C         9.07479994755808   13.86414445344990    9.40261259677346
C         9.59730988626947   14.05517030199902   10.68129339662232
H        10.04638510320022   13.21463586022644   11.18819748601392
C         9.53761053547955   15.30103529960072   11.27437899712448
H         9.94317124955541   15.44787356138976   12.26465584029479
C         8.95988876941103   16.36436997557745   10.59808413378748
H         8.91510808035649   17.33866793793125   11.06260084204729
C         8.43984164391400   16.17923541626068    9.32596693042219
H         7.98936269261231   17.01025489468205    8.80313471735433
C         8.49421543923253   14.93575429474816    8.72618837797632
H         8.09040870138608   14.77174928769951    7.74019495674624
C         7.49622442426850    7.05134854347218   10.00670320315216
H         6.59557763895148    7.58073477952080    9.70784239088349
H         7.51935333802938    6.95978641590893   11.08967022533616
H         7.48863351737524    6.05211127955811    9.57768561118200
C         8.71587278748649    7.81185321289464    9.52174014981732
C         9.96428365592297    7.27910336595657    9.84693999797970
H         9.97176386584112    6.34889129051199   10.39477367732344
C        11.20572984085826    7.86894747624019    9.57879293678269
C        12.43750609852101    7.12346601557421   10.05470637115726
H        13.32893854103468    7.67048013301174    9.76003837291393
H        12.46155486906163    6.12695661900536    9.62038549798075
H        12.41734134228565    7.02510853688739   11.13754930106590
C        11.12806074492211    7.72971530669789    4.59849218922897
H        10.46045093861232    6.92489101227749    4.89362037416681
H        12.13763000347396    7.34420739965543    4.48292413608420
H        10.80051323233913    8.13329607037299    3.64264496751114
C        11.09313898647085    8.82320335189499    5.64696555557132
C        11.99593681371812    9.88216282809577    5.49106092482562
H        12.66674301868518    9.82916495802144    4.64654189583866
C        12.14484482655844   10.97742664403759    6.34553635882418
C        13.23336459506291   11.97558239706575    6.00626155675887
H        13.21706756824745   12.78694561603016    6.72900805633936
H        13.07640217195611   12.37429351571229    5.00683354490983
H        14.20516088065967   11.48823003500453    6.03384148780117
N         8.67469973717617   12.39554654074660    7.53737167066614
N         8.76190319193324   11.15666950056952    7.12161818828967
O         9.59342183716157   11.54565424058907    9.43243070841101
O         8.47691102258438    8.86366424188102    8.86729952297943
O        11.40036387649567    8.97026169525568    9.00772872617094
O        10.24355431366242    8.67983978204519    6.56438323669895
O        11.46445626811760   11.23515762479524    7.37606614902249
Ru        9.94085825560298   10.06206673169564    8.04695148262314

