78
CSD_code = GEDQEM | q = 0 | S = 0 | Stoichiometry = C41H27CoN6S3 | MND = 6
C         1.38818980295252   11.48814283415094   11.90791991938029
H         0.63849591593777   12.13732070291750   12.31615648359925
C         2.69097787133351   11.82531681203326   11.62245249531493
H         3.16106557490031   12.77930629499583   11.76745631849474
Co        2.94970658225119    8.07015093706513   10.33015702911640
S         8.68415309433144    7.58908442386993    8.85571772142061
N         4.51502634939733    9.00868986737824   10.05506977013027
C         0.09482509954005    9.26406425346392   11.63317652274591
N         3.72030118849606    6.52937097700939    9.56185613921376
N         2.38901929883689    9.66879943125773   11.06514626018776
N         1.27242068975211    7.28912148173471   10.70800082886356
N         2.28256450801603    8.59345914167001    8.57939919716440
C         1.21201238781765   10.12053980243520   11.55825948938993
C         5.68313500876954    8.73237735393925    9.42918984571221
C         4.94932388306663    6.43341167438928    8.96033554965811
C         1.38924158969706    3.62557297120890    9.97775720011301
C         3.30371531295547   10.67243985207961   11.08908600335310
C         5.77455631679804   10.86738106455697   10.15828946133770
H         6.08621815961187   11.87038598470558   10.37939869176694
N         3.60748739021488    7.51659921036587   12.07906104827299
C         7.14054605200325    7.19971204945598    8.14568739577221
C         0.18071628763191    7.90875095295375   11.26051785608870
C         3.14482193765692    5.29632451455047    9.54951947604961
C         0.98797150045939    5.96417472014032   10.58059096176275
C        -0.82148271654262    6.91941024688561   11.50104478183451
H        -1.77411937891006    7.10067108388017   11.95912831451062
C         1.14428142773190    8.00673663793522    6.55887262837602
H         0.64767134518440    7.23874369354590    5.98719522354058
C         1.65317340042491    7.70240965984953    7.80811603529831
H         1.54549672486832    6.70045393810552    8.19369405136319
C         4.53540673605132   10.28962259101513   10.50504173052862
C         4.03225099258274    4.37933892440561    8.90862686710227
H         3.84301717675450    3.33705842739954    8.74250585294362
C         1.86113509297325    5.00412534828214   10.04067262358800
C         5.14223958578720    5.07845495307570    8.55103957377291
H         6.02115574133050    4.69426288495857    8.07176642106815
S        -1.25540044664603   10.68952279682267   13.61413629234794
C        -0.32343957264439    5.72235004786421   11.09154181239956
H        -0.80171524427002    4.76444137304188   11.15153449918234
C         4.83381465651544    7.01145793181110   12.23002417686792
H         5.44679645498121    6.91992540441704   11.34705545318260
C         1.93279368736044   10.21928918844070    6.85964609532707
H         2.07185865031669   11.23754951710682    6.53280080742798
C         1.28096003330720    9.29302854487395    6.06406901556959
H         0.89363780897877    9.56319210541655    5.09354729483188
C         6.48752276217358    9.90462476908941    9.48232174612594
H         7.47003535722364   10.01511785793053    9.06675664686990
C         0.26378523440487    3.14088429619569    9.37813647963041
H        -0.41168879935549    3.76218710442675    8.81649202651096
C        -2.41865746275599    9.59601373435198   11.61040185240422
H        -2.59389392443779    9.07588062097546   10.68537674764885
C         2.41434013823931    9.83103307991258    8.09741574455396
H         2.92348807697459   10.55522466909690    8.71469251525298
C         5.89990765938872    7.46591203399433    8.84961574763552
C        -1.16872378493985    9.76496674167180   12.13893153212958
S         2.25743218664432    2.34029309511464   10.77297837922327
C         8.66684874491258    6.50276072994220    6.53905786914302
H         8.98808625151288    6.08269638143398    5.60223435946984
C         2.85769166334759    7.64098504031274   13.17617157937387
H         1.86987439794922    8.05861371710776   13.05939496645466
C         0.09416125149349    1.74892698010775    9.53916566472113
H        -0.73110871767574    1.19679094163164    9.12499826881200
C         9.51904550472198    6.97321993312512    7.48465920582321
H        10.59008157210306    7.00606293774091    7.46547544215723
C         1.08810087936418    1.18315634941172   10.26738324286228
H         1.21704286963457    0.15448355430263   10.54026027608005
C         4.55843284977914    6.73264338517146   14.58639314597439
H         4.92518126865177    6.42785631005860   15.55467005150383
C         5.34234597401023    6.60939836929790   13.45191172857462
H         6.34166494145644    6.20744932799487   13.50323626759328
C        -3.43847667165251   10.20309601128151   12.37124354855783
H        -4.47941873538849   10.17821310458325   12.10066411992629
C         3.28917109116083    7.26443737935545   14.43540528977401
H         2.63161780136343    7.39192050876565   15.28057560531544
C        -2.96427423618409   10.82517877035658   13.48021422479439
H        -3.50765065036773   11.36332713308575   14.23113464191056
C         7.31398031009840    6.62660260708198    6.91669304095852
H         6.49013023758122    6.33199991763136    6.29097682625819

