42
CSD_code = GEDVEQ | q = 0 | S = 0 | Stoichiometry = C20H18CuIN2 | MND = 3
Cu       12.59238159770057    9.46595297979934    9.89457590728154
I        12.48623511483790   11.82271449115722    9.08438423600608
N        11.15671645470055    8.24025373750774    9.39006943713134
C        10.30417294415176    7.82003200532856   10.30792688864757
C        10.67429119951323    7.98712493175084   11.74601693859659
H        11.75785791023775    7.98060171502863   11.86415568079790
H        10.23731704536609    7.19676991163247   12.35248145013655
H        10.29949439086821    8.94308105520802   12.11479813482301
C         9.07413179487094    7.23134488335850    9.96604654679333
H         8.41270503169081    6.90783917318582   10.75498145081933
C         8.73371497355743    7.07910293142150    8.65055694368667
H         7.79318452831191    6.63218048793090    8.36319063980417
C         9.63035385039377    7.51271601051663    7.65229137032409
C         9.35870477959626    7.39357494679091    6.27589788712547
H         8.42189187898307    6.94932807729741    5.97193979768720
C        10.25960350607021    7.83976285600609    5.34849470637775
H        10.04432241184480    7.75343694387979    4.29414671253165
C        11.46772400971040    8.41767263470086    5.76158096643850
H        12.16739735981318    8.77456499587280    5.02140145678392
C        11.76298743885259    8.54039126674374    7.09251020323160
H        12.68666921873040    8.99926741526394    7.41101061248852
C        10.85328664435121    8.09993351336944    8.07043990028967
N        14.09899432688695    8.92096537347966   11.01009561008588
C        15.01445637227798    8.10331804127427   10.52083734598475
C        14.69807096170707    7.36384647644712    9.26163754207105
H        15.23044106907921    6.41613889565175    9.22366884848510
H        13.62564522784934    7.18339479586971    9.18504879454676
H        15.00279083445542    7.95883871900565    8.39934767900647
C        16.25953485074218    7.92184216184768   11.14768115464738
H        16.97316383478086    7.24354797336786   10.70591578500556
C        16.54841967336679    8.60116419536511   12.29878077740260
H        17.49822041080492    8.47842234583942   12.79847008382982
C        15.58605285085306    9.47698993266505   12.84215609661066
C        15.80253858729909   10.21592397563928   14.02099243655455
H        16.74766140378535   10.10505435266439   14.53269697455068
C        14.83874839542195   11.06081561228209   14.49859549877793
H        15.01149342430092   11.63114579771046   15.39880138413274
C        13.62116290720525   11.19686615363796   13.81800328754981
H        12.87194714051325   11.87446073796532   14.19795285142895
C        13.37848778296332   10.48549107291084   12.67404665417321
H        12.44708432056878   10.60161650820154   12.14076762036204
C        14.35214154098998    9.61410991440488   12.15380570700045

