88
CSD_code = GEDYUJ | q = 1 | S = 0 | Stoichiometry = C45H40P2Rh(1+) | MND = 6
Rh        2.79779522582589    0.27355314368580   13.02415168052205
P         4.32361454497092    1.59988159393620   11.97479219030270
P         1.79887415713630    2.20245825514139   13.76334709467218
C         4.27781367410717    3.99515140091161   13.51377623243924
C         4.90988221127647    2.78267053641072   13.22411753377662
C         5.93223997213235    2.31151913118249   14.04715462658808
C         6.37850810839380    3.07210332858144   15.10899857478923
C         5.78847402530210    4.29606696444539   15.36457034132208
C         4.73654148928434    4.76740346204881   14.58907259651861
C         4.11963599525708    6.08485712665306   14.94569304826172
C         3.11551671421141    4.45109915717044   12.71663346961564
C         1.88789218204389    3.77834716385219   12.83554731760488
C         0.76912157914002    4.26801180165316   12.17216962621882
C         0.86425037971431    5.39765229607145   11.37954252288837
C         2.08088556237507    6.03059952925396   11.22760137626122
C         3.21239271942269    5.57672128303753   11.89646409699009
C         4.50765568921563    6.30057682715634   11.68898068550733
C         3.57617069326639    2.48128992763756   10.57147401088596
C         2.31615062418747    2.07064602321928   10.15246540146388
C         1.72778796276847    2.65142185533576    9.04512688107492
C         2.40715337031571    3.63515962414283    8.34510400687837
C         3.67597255680002    4.02641969415092    8.74371806104632
C         4.26741285356693    3.44766836297437    9.85066293682280
C         5.84749870174449    1.06117730566274   11.12107921174336
C         5.71268615579638    0.01102442839950   10.21699530332734
C         6.78971017656830   -0.41198599723674    9.46227991884192
C         8.01456539047907    0.22235599891760    9.59463742406221
C         8.14789984949595    1.28913919341849   10.46743798210376
C         7.07111178007315    1.71425999577018   11.22621801665594
C         2.42805947272833    2.66638101666855   15.40252089654967
C         1.97061640795993    3.81433432264139   16.04341235996818
C         2.44405910334197    4.13218240295687   17.30266623049390
C         3.37846523844485    3.31587450900527   17.92153302590986
C         3.84378579339892    2.17919487935741   17.28100013143062
C         3.36795458159762    1.85239569420816   16.02451517801375
C         0.01259023239773    1.94495403707161   14.02490039351460
C        -0.61602569331116    2.05369012847830   15.25906705952783
C        -1.96857694860157    1.77658105135851   15.37437078636643
C        -2.70086552107010    1.38202137346025   14.26806044416148
C        -2.07611005281221    1.24854941900725   13.03715931194216
C        -0.72627556862278    1.51797629744129   12.91912134420201
C         1.96903136821288   -1.01284615728823   14.57134367676397
C         1.20321490224207   -1.16776985397533   13.43779211359256
C         1.82199453729253   -2.32058926483192   12.65063856947796
C         2.32364325819887   -3.20954861232233   13.80162870647857
C         3.08236542350412   -2.05950973154703   14.48604962617146
C         3.91703389883952   -1.54336997785219   13.31199369161846
C         3.13616666942480   -1.70102043957746   12.18416263741212
H         6.37186642954901    1.34336422546989   13.84445114022758
H         7.17762373161068    2.71179159169286   15.73829147644052
H         6.13584236147012    4.89619081172649   16.19209870749433
H         3.13466643297848    6.20327874502233   14.50381315729455
H         4.75339708143385    6.89933025805576   14.59589552422552
H         4.03652910541145    6.17508936860676   16.02637192595263
H        -0.18543614095282    3.77688271228743   12.28050550964005
H        -0.01167693288982    5.77408525668939   10.87421112474299
H         2.16216846293611    6.89827701196748   10.59029305414446
H         5.34432835528966    5.76531220501994   12.12860669102168
H         4.45841057541231    7.29468048151034   12.13136557013686
H         4.68997183671958    6.42774784322856   10.62346178614092
H         1.81077349730920    1.28019724738156   10.71106724040690
H         0.74726129865820    2.33657748970686    8.72101691041071
H         1.95170668499549    4.09022949723840    7.47911803600725
H         4.20747627274747    4.77989088682481    8.18214206041560
H         5.26110774905856    3.73886056042694   10.16031050210235
H         4.74581034684116   -0.45763426642973   10.09558049840735
H         6.67484839729395   -1.23067988021630    8.76817837398998
H         8.85985199825002   -0.10683714135270    9.01048654924318
H         9.09556686572292    1.79854625900176   10.55677358290195
H         7.18894780005515    2.55360013293855   11.89601089174143
H         1.24956584040002    4.45190068383936   15.54950463918124
H         2.08316514859436    5.01749261673063   17.80458194198867
H         3.74547103007478    3.56837606367345   18.90453689257804
H         4.57589746735915    1.54897809924120   17.76271534699988
H         3.73565017647630    0.96989951165981   15.50436146430750
H        -0.05514422097796    2.35209642959555   16.13246828899350
H        -2.45028694984424    1.86785671413776   16.33592139167008
H        -3.75423278408337    1.16932210882718   14.36400079040523
H        -2.64096137520557    0.92836869415227   12.17440775052623
H        -0.22808177451432    1.39822787534406   11.96355035491922
H         1.67166462360507   -0.52411254307506   15.48979833172829
H         0.18972951854178   -0.82188848316433   13.28773632238208
H         1.20015717053521   -2.77878063620407   11.88710014169946
H         2.97639862395209   -4.01540779199178   13.46753592537218
H         1.51781215576289   -3.61417046508350   14.41297870247080
H         3.61656206940358   -2.27988828952828   15.40579399906882
H         4.99376622910700   -1.43056364253248   13.34579723143213
H         3.47128339295760   -1.75651875033396   11.15851181847312

