87
CSD_code = GEFGUW | q = 0 | S = 0 | Stoichiometry = C39H42MnN3P2 | MND = 6
Mn        9.51785129353662   15.69726951591774   16.42411850820768
P         9.34416791975931   17.81436919893119   16.99720557297223
P        10.16907729045324   13.59533878890123   16.33790819904961
N         8.64974608464094   15.56796718857246   18.13759288682958
N         7.83421634744307   15.62561588720916   15.86363652003710
N         9.85121302593694   15.71052652831491   14.52862377769530
C         6.44125658250356   15.21615829203001   19.27435629617151
H         6.90820599464204   14.55394620217919   20.00318864916048
H         5.50711402831304   14.76129375069706   18.95502938514433
H         6.20281548336175   16.15542327316104   19.77577444261955
C         7.33672242432753   15.42443694111054   18.08864407179464
C         6.82440408109964   15.49287216236981   16.75950460538087
C         5.48828375431379   15.50537681738948   16.34821735997388
H         4.69084523653419   15.40739295059486   17.06803734840036
C         5.20256212148023   15.67747400253681   15.00399019120285
H         4.17533403983818   15.70904437089129   14.67031672347325
C         6.23179554959941   15.81128729605223   14.08785550730421
H         6.01119039992642   15.94703110828907   13.04038217023221
C         7.55607363352739   15.76652835594798   14.53943578566615
C         8.76137613450929   15.77110906734445   13.77718314554723
C         8.76041177652825   15.77042131619077   12.27522131896188
H         9.34934353815476   16.60332974908538   11.88695148591134
H         7.74637464259078   15.87430372618088   11.90195033392136
H         9.17474137231119   14.84362301309810   11.87586281927567
C         9.29745082193371   15.76221869026003   19.41307367420125
H        10.35583904542933   15.51136570944510   19.29453594169290
H         8.87461232562862   15.12413155939042   20.19862011076405
C         9.16632786806194   17.23429296542750   19.83006801105804
H         9.70191662473483   17.38606823683162   20.77131113898242
H         8.11296826150236   17.45241110667521   20.01544369634984
C         9.72756815450202   18.18872353705366   18.77624674509716
H        10.82340571175064   18.14833882884151   18.80248880168031
H         9.41687848126593   19.21962217315491   18.98153712486491
C        10.32114660268071   19.20063733225915   16.29904484861599
C         9.91442187101852   20.52685531630208   16.40536161720614
H         8.97567535017355   20.76718228269574   16.88671732750312
C        10.70361155705056   21.53620388385657   15.88567449583524
H        10.38391904197478   22.56531508287241   15.96871047402217
C        11.90174335868316   21.23237500050233   15.25873208752070
H        12.51317548965126   22.02518581338746   14.85263392653317
C        12.31266345559714   19.91388240756198   15.15290034756698
H        13.24658012816370   19.67652727281388   14.66381728674275
C        11.52350164780105   18.90296924411350   15.67182804105008
H        11.81600964419789   17.86322413526783   15.60677149366401
C         7.68104642899710   18.50096322663948   16.69662726237919
C         7.38521247604770   18.74199028210425   15.35421723692477
H         8.17277297118126   18.61835050886572   14.61857027255948
C         6.11882568085908   19.13157033538381   14.97127587459283
H         5.90056502002018   19.31589863928668   13.92902249762000
C         5.12235554664448   19.27277651503280   15.92523747072724
H         4.12604492006490   19.56583979061109   15.62769925108492
C         5.40607973572617   19.03624265756942   17.25842553965531
H         4.63074614071077   19.14835398790005   18.00363853155316
C         6.67763838482467   18.64787481296927   17.64478577965573
H         6.88536489369644   18.47190669646670   18.68970025739038
C        11.11567757575140   15.43100276654154   13.87587582075329
H        11.91560226628575   15.91153013536757   14.44595142242080
H        11.13913850321779   15.81731589532560   12.85121952241580
C        11.37969454630745   13.91503398165104   13.85408367453171
H        12.24174881081093   13.71787466529817   13.21042511649461
H        10.51142638961835   13.40339187684450   13.42553205035162
C        11.65363021594118   13.36165302926183   15.25220237452241
H        12.47885796887800   13.91717848840172   15.70433518799113
H        11.90844833141386   12.29857285750835   15.19880963772011
C         9.18870477147966   12.17886768381847   15.68930420480402
C         8.01590722600750   12.38091445544764   14.97536055823847
H         7.64209959525366   13.38195187074991   14.82613605635521
C         7.31437139685050   11.30726345563274   14.45249262798057
H         6.40229386526157   11.48136672807093   13.89934721343329
C         7.77918385032502   10.01840334055478   14.64101354659481
H         7.23281052470567    9.17906550862329   14.23576897988088
C         8.94842644641380    9.80593338188742   15.35589817697454
H         9.31243758245571    8.79970334498349   15.50802924032324
C         9.64926608769527   10.87654807588079   15.87521011357976
H        10.55546113997376   10.70630843110827   16.44117143869219
C        10.66322964215868   12.85272975988878   17.92827144180096
C        11.95923637456812   12.89179997828363   18.42825954821612
H        12.75670616285371   13.30161406884577   17.82683234142539
C        12.22876409349090   12.41284876027635   19.69865587528462
H        13.24057094974174   12.43614742074726   20.07779666300151
C        11.20891742859390   11.90825876562233   20.48776830913669
H        11.42396480978032   11.53647015602999   21.47904593136853
C         9.90935393189564   11.88807999804634   20.00495403676322
H         9.10946542594995   11.50204839804987   20.62147507260674
C         9.63880535499369   12.36142075968030   18.73645543397487
H         8.62577932726526   12.35187122386725   18.35194440269518
H        10.99742900816757   15.86199320314022   16.90176970965689

