80
CSD_code = GEFMOW | q = 0 | S = 0 | Stoichiometry = C23H52O2OsP2 | MND = 7
Os        4.44719363441022    4.18242308172032    3.37141227315720
H         4.98491264734857    4.46704942092505    1.93091660470708
H         6.00303184275247    4.14908911181206    3.27254423128347
H         5.14564916790395    3.87556708008982    4.73768520105141
P         4.32564020423854    1.82049659531455    2.93197138233614
P         4.43535264971080    6.52449420702875    3.85422638925891
O         2.76538442734243    3.97197120654373    4.79252884567827
O         2.64839122248312    4.50764551317076    2.10585099467752
C         0.72849806427204    3.63591400978464    5.95207864586340
H         0.18606851719327    2.69738222595684    5.84946091721067
H         0.00493136226559    4.43044610873280    6.12545837151535
H         1.40297518331584    3.56883705654497    6.80277191456180
C         1.51722779641231    3.91423391467222    4.68383655882862
C         0.78940490596489    4.09790679542377    3.50526955669328
H        -0.28697862387645    4.03145578785472    3.53876517076950
C         1.41258822239339    4.41030179140786    2.29255393887927
C         0.51363230516597    4.66151784334679    1.09252757279517
H         1.10527385259156    5.03074399125371    0.25737453426170
H        -0.25552081660322    5.38896739788064    1.34416579873215
H         0.02387939561917    3.73416279454636    0.79747957871580
C         3.42371876854136    0.76750818262236    4.20942640948155
H         2.37332162183517    1.04102595249303    4.04379147285946
C         3.74354984785241    1.14437231029633    5.65459699032667
H         3.00564838310012    0.69448072642350    6.31944522573696
H         3.71235959227018    2.22193238813885    5.78347845822341
H         4.72541779653564    0.79428418671399    5.95869549671288
C         3.57551262206462   -0.74128313933375    4.02154947401751
H         4.55992189752222   -1.07235093105276    4.34372524506219
H         3.42960184684588   -1.04785454928364    2.98871234879100
H         2.83639120239675   -1.25733060052663    4.63449793295648
C         5.96406060233225    0.91499811740876    2.74228015864901
H         5.73230680942305   -0.14477426464627    2.58507765371023
C         6.75108700391866    1.42438525539632    1.53776868387535
H         6.81455917739171    2.51115134277025    1.56835252868321
H         6.29467618121473    1.11521145375170    0.60180741876932
H         7.76201925083513    1.01903555315544    1.56135482048827
C         6.81886868671115    1.06263489928482    3.99686378492891
H         7.81229280307903    0.65145698022276    3.82094197194514
H         6.38672893789715    0.53523924941236    4.84113045035137
H         6.91728638776740    2.11537998205482    4.25548550279732
C         3.47390067023559    1.23119521554230    1.34958196371304
H         3.94006776470660    0.27382921962468    1.08021829814194
C         3.71204447362063    2.22899447122654    0.21689675609800
H         3.34590212686896    1.81982061178018   -0.72515134818296
H         4.76321760978299    2.47445412669455    0.10480518291120
H         3.18126047137366    3.15391496510949    0.42225925596899
C         1.96690959586755    1.02443241044530    1.50327087135537
H         1.50514012550032    1.89287032308774    1.96917023518095
H         1.72345563438411    0.14373425159374    2.09248246846638
H         1.51864688752022    0.89648470552918    0.51759832949337
C         3.37019693895154    7.53417193871787    2.65833374793303
H         3.41871076606754    6.92343404788776    1.74643136646144
C         3.82139538188095    8.94880571482821    2.29452767552593
H         3.11431671274018    9.36064319647667    1.57381543131186
H         4.80510049087776    8.96507604272318    1.83692238566589
H         3.83046215200703    9.60912144609311    3.15792418781592
C         1.90876965294084    7.57735718297158    3.10636522254481
H         1.75964832679375    8.31267800879239    3.89529576887573
H         1.57306107595941    6.60784390603543    3.46812760003841
H         1.27368298062882    7.85645854831975    2.26542801140528
C         6.09780659707084    7.37429782110460    3.69579405870034
H         5.93125509243002    8.45138165385038    3.79816059929419
C         7.07499853790930    6.90710343632012    4.77054695971571
H         7.05466689407154    5.81998520174171    4.83785390573243
H         6.84037141504836    7.32705614927081    5.74450778127699
H         8.08520264105184    7.21912641556726    4.50839584853135
C         6.69914354865568    7.07822576288930    2.32277601963786
H         7.54285708065611    7.74060766086010    2.13169742659881
H         5.97330134314291    7.19849282811981    1.52302194107864
H         7.04863135034709    6.04863752272583    2.29534257277284
C         3.79416407420803    7.05750516681098    5.54202128967695
H         2.71151174226934    6.89789919943859    5.45850085383657
C         4.27946938167529    6.13934717975866    6.66147586460825
H         5.34266812963707    6.25289012253999    6.84849026024103
H         4.08711720301620    5.10202642519374    6.40323405032014
H         3.74325890868627    6.37071135885846    7.58220994753156
C         4.03676208708311    8.51899976507899    5.90944841315303
H         3.55348572727949    8.73259583237613    6.86314855103555
H         3.62312089801228    9.19811456204006    5.16949499774518
H         5.09695212828908    8.72986657303974    6.01991473882581

