91
CSD_code = GEFMUC | q = 0 | S = 0 | Stoichiometry = C28H56O4OsP2 | MND = 6
Os        6.56122486500465    2.52481420304154   10.63777525717786
P         5.32834273118238    2.04032385016355   12.62898821789831
P         8.70333323750498    3.39594679659288   11.24815153344763
O         7.23879990582145    0.51820159147974   10.53446331891021
O         7.19813273553980    2.80068017978076    8.65150285978433
O         5.78313198205999    4.48868606248490   10.45270985166411
O         4.87091819683407    1.80174681278606    9.61499554474111
C         7.71680964842968   -1.56730267772426    9.53346207414660
H         7.75217165480686   -1.87249196997431   10.57667951714108
H         8.64391156041727   -1.84918050140249    9.03901583664013
H         6.89378066921486   -2.08448511026831    9.04258907135669
C         7.49888796746262   -0.06552926149316    9.44473973246511
C         7.61997046730430    0.50583442092059    8.17669041922441
H         7.83837312383815   -0.16306263435297    7.35697926576754
C         7.44669266122989    1.85882872762631    7.86044383610327
C         7.60584643580349    2.23370164603756    6.39590938429006
H         6.88613353190675    1.68623989931191    5.79091481967351
H         8.60666784625355    1.97989461590631    6.05141691958122
H         7.44138149891340    3.30150969277084    6.27289039919058
C         4.60347670375982    6.27705463396992    9.45718326380612
H         3.55218477998015    6.50665036692685    9.61477793890016
H         4.87037948855728    6.56710622306443    8.44272270433093
H         5.20919418107578    6.84627044013252   10.15798705320687
C         4.85810832736132    4.79049706708382    9.64711797789043
C         4.03755082112518    3.92264980167573    8.92416959958781
H         3.30181583861899    4.37255390384323    8.27351423480665
C         4.10314131098410    2.52405747755724    8.93411523619178
C         3.11137049934215    1.79698939084252    8.04047610413674
H         3.24361997021651    2.10721422071149    7.00607299523866
H         2.09287503931126    2.03486804728557    8.34218436289376
H         3.26934734100986    0.72391763294075    8.11813372310012
C         4.27813620237168    3.40216674079643   13.39591037958545
H         3.89677518972565    3.03895445015400   14.35476088165261
C         5.15192001008816    4.62562835704841   13.64041667134687
H         5.52774250385173    4.98472782045804   12.68782515306981
H         5.99838645097771    4.38636847369227   14.27887294442851
H         4.57598541048602    5.41893453156870   14.11654169064556
C         3.09412238688160    3.78920952192761   12.51229160274218
H         2.66961327322412    4.73093648314373   12.85992088179959
H         2.30502937883046    3.04179472620761   12.53642483421502
H         3.41419557999624    3.92337452502945   11.48251438561727
C         3.96016092292970    0.77289289196724   12.33872083709125
H         3.32711324865272    1.31514355819277   11.62560410243411
C         3.10738649555001    0.39031178098229   13.54742667876400
H         2.25073303075171   -0.19115372613325   13.20546817449417
H         2.72750258042251    1.25527953417590   14.08347679414347
H         3.66852112668755   -0.23235551334348   14.23916400349212
C         4.42016291300002   -0.49365138331321   11.61983180710490
H         4.87807058976809   -1.20382192870958   12.30141653483150
H         5.13117105804809   -0.24216584824082   10.84120787146767
H         3.56125882533763   -0.97985182067322   11.15689466302122
C         6.31096345762695    1.44575067629347   14.12833401304851
H         7.22028682557318    2.05522407456602   14.06341357159536
C         6.72371668834514   -0.00967001330207   13.92198211557931
H         7.60555422862127   -0.24489146306862   14.51661685934037
H         6.95086047858502   -0.18223184377238   12.87355937957533
H         5.92703622860360   -0.68261976443397   14.22793341913256
C         5.72503761563328    1.63694538050323   15.52542471871490
H         4.77110244580249    1.13155332374825   15.63923638996189
H         5.59510557310222    2.68679913747258   15.77256816330378
H         6.41597990393570    1.21002550242232   16.25285042111834
C        10.12175867581412    2.19122427830472   11.53525560481435
H        10.97512616366424    2.75600204070698   11.92201106962309
C         9.69714968562795    1.16030289503112   12.57308114601043
H         8.85180909994607    0.60046857068752   12.18631163273324
H         9.40128648024811    1.63507434125284   13.50499253165223
H        10.51371727512230    0.46990332925374   12.78367041900112
C        10.54581453787629    1.47877273234021   10.25261709803325
H        11.17557766173270    0.62398241760602   10.49882671535428
H        11.11438591282019    2.12946647257584    9.59291627257146
H         9.67589943352347    1.11254998713602    9.71412471571892
C         9.48696815379428    4.41307671293582    9.86483613532550
H         9.59726769846453    3.64820544395044    9.08627571479547
C         8.57102959937701    5.48580828906271    9.27931620394027
H         8.56521500410768    6.38813204458243    9.88296398094569
H         7.55837662936135    5.10748640125123    9.19926165768873
H         8.91776489425018    5.75297533263469    8.28094070673090
C        10.86187327473337    5.01703706544600   10.14656505037887
H        11.27145174421791    5.41154976786300    9.21625009652196
H        11.56782085880316    4.28954452050642   10.53674662726023
H        10.78812004486213    5.84478487276582   10.84688850763615
C         8.79368100873199    4.44775302630682   12.81448019068633
H         8.09465525552625    3.92809158393554   13.48071305048870
C         8.21075590276616    5.83069183968410   12.53366009732439
H         7.85959398730868    6.29200213843221   13.45585306237043
H         7.37558440996098    5.74453728305301   11.84405688655650
H         8.96300084094943    6.48447609437452   12.10020051310695
C        10.12560039876450    4.57460587762234   13.55054950273679
H        10.89874347157272    5.00471568212949   12.92155364918628
H        10.47547751114260    3.61793914410093   13.92801477005869
H         9.98748874062620    5.23604607938956   14.40628339413040

