48
CSD_code = GEFVAR | q = 0 | S = 0 | Stoichiometry = C13H26Cl2N2O4Pt | MND = 6
Pt        7.47357004439503    1.10751923174642    0.26347425456885
Cl        7.82282438259907    1.75271501345728   -1.92133474079531
O         7.30504242206326   -0.84689023969740   -0.39287131037662
C         9.72965234505631    1.10722723383637    2.08841957888317
H         9.48757908981253    2.12717821237567    2.41541356728329
N         9.54980816387519    1.02159137893552    0.63897460244038
H         9.80229078892698    0.06263990528636    0.29746731155945
H        10.08815580168023    1.72382175451696    0.13339950009377
Cl        5.21007902822267    1.29028091402381   -0.01067446917440
N         7.37988342153088    0.44551135550466    2.32896268622074
H         7.12847279518090    1.37416704448433    2.74311943732658
C        11.17221118267656    0.78003703983321    2.48338359319516
H        11.41266573302001   -0.22962784047233    2.14311469208230
H        11.85283945331437    1.47593862890945    1.98882964138669
O         9.42196444170923   -1.50822628570601   -0.16727256454909
O         7.52779903264704    3.12776249668947    0.72944046503105
C        11.33826804485136    0.87105658012438    3.99648449354182
H        11.14401856920376    1.89437295672668    4.32387422284667
H        12.36333270349422    0.61932872281936    4.27057242558745
O         6.97553058183539    3.04859914146231    2.88470947337037
C        10.36469091442360   -0.07756663323269    4.68425641794548
H        10.46390122330626    0.00835715956726    5.76710726634348
H        10.60467743761571   -1.10633139250368    4.40667749492872
C         8.92479090557011    0.23275777379525    4.28224873657578
H         8.65727651125860    1.24374000079561    4.59698213599778
H         8.26080946961265   -0.46616054783823    4.78797044782078
C         8.74981675444342    0.12725677742557    2.76223364505944
H         9.00241685573706   -0.88401400053045    2.42508677446987
C         6.27657619507490   -0.48955824280225    2.65668015365363
H         5.56102028166576   -0.39692493446034    1.82998916042031
C         6.70479558446269   -1.95101389543358    2.73182409811823
H         7.22490220716272   -2.25144000481599    1.82664946168195
H         5.81385848157217   -2.56673599444827    2.82162513615545
H         7.33869234259189   -2.14960181875282    3.59272699921935
C         5.54673855824261   -0.04889427924273    3.92640136696124
H         4.62050799414202   -0.60881220593485    4.02250090185021
H         5.29844463638788    1.00767685945877    3.86598514960868
H         6.14045283258910   -0.21786407547082    4.82060906529777
C         8.26101163849769   -1.67183960241672   -0.54253418728283
C         7.84830268726887   -2.96156182777650   -1.23034489256536
H         8.46208451066719   -3.78285329418204   -0.87123479283565
H         8.01816221504945   -2.83207702043705   -2.29731960505750
H         6.79288096870287   -3.15396046134874   -1.06422938920407
C         7.16062528958355    3.65276238553448    1.82976337325551
C         6.98954163152481    5.15929308209725    1.76020373308184
H         7.18798687220990    5.59796025571469    2.73381740122430
H         5.95573714180337    5.35697099630435    1.48385314165128
H         7.64040983273837    5.57623169607607    0.99798394510167

