124
CSD_code = GEFVUJ | q = 0 | S = 0 | Stoichiometry = C64H52AgO3P3S | MND = 4
Ag        2.28933849326581    9.57465979362202   12.59506271664264
C         4.36281665152334   12.58749236312228   10.32173761732537
C         3.86218949892802   13.85623256845831   10.32522771082233
H         2.90110778551737   14.02853349373036   10.78620030498546
C         4.58794757212536   14.90755910139457    9.74289897835904
H         4.17449900881190   15.90574786245286    9.74912414833129
C         5.81117494806284   14.66493432226570    9.18244941458410
H         6.38199266827865   15.46902412811210    8.73843979471987
C         7.62357176184805   13.08787691097921    8.61336168657093
H         8.18419897425886   13.90099423244736    8.17321420502693
C         8.12964027108337   11.81822997777295    8.62331885017842
H         9.09884873632397   11.61525987533462    8.19019478545101
C         7.39321667144367   10.76620115951561    9.19012311860582
H         7.80355200274463    9.76647677836372    9.17618059929278
C         6.16512457055870   10.99693937515882    9.74579233289369
H         5.57947794914378   10.19607564811674   10.16733489308356
C         5.61981014994046   12.29682120274224    9.75590846048163
C         6.35975388661632   13.36439636870077    9.17512046973183
C         4.45092637393961    9.69624013705282   15.58508210800229
C         3.45398047482423   10.41246189608797   16.24471907058196
H         2.41590568704017   10.22147484953470   15.99565383623847
C         3.78390228792943   11.35752496344281   17.19635074398832
H         3.00331523381896   11.91115729502880   17.69809028637301
C         5.11592094628247   11.60028793889438   17.49524606614660
H         5.37836060544155   12.34419842996089   18.23329506800108
C         6.11019691256297   10.89157270186517   16.84212838475293
H         7.14862035610809   11.08169454837506   17.07333233074467
C         5.78424441754348    9.94091017311395   15.88951498646376
H         6.56759880630401    9.39650667250475   15.38179573531635
C         5.43410650758186    7.82784628098510   13.67467979572256
C         6.20484106043835    8.68201111096877   12.88492838563918
H         5.86940615877196    9.69901179230440   12.73156791334345
C         7.36790981722475    8.22051924226128   12.29931760049793
H         7.96554823267276    8.88754735331712   11.69508842528812
C         7.76314694952870    6.90352852212848   12.48287655455365
H         8.67052333895399    6.54118379527814   12.02112271786971
C         6.99071158089108    6.04941208567982   13.25262519636907
H         7.29467674945394    5.02130009246115   13.38944182313736
C         5.82644608296984    6.50455884534144   13.84804050204891
H         5.22265734366470    5.83309693378610   14.44238461434620
C         3.26114514797327    7.15082020713911   15.38134018597338
C         3.67887653704414    6.94075052970948   16.69014283862716
H         4.42208021036609    7.59140801160393   17.12838119999675
C         3.14042438316902    5.90133478704889   17.42803638762569
H         3.46645817118939    5.74096164268747   18.44553532421470
C         2.18582890346214    5.06689134816916   16.86870672956052
H         1.76706796225225    4.25970135948181   17.45167816244491
C         1.76640494198338    5.27039089557909   15.56332950728213
H         1.01889330802373    4.62763420252025   15.12163913469172
C         2.30110001635688    6.30996022327347   14.82617879895913
H         1.97259125800594    6.49270082838480   13.80821375492042
C         2.27296203284904    6.94439840805296   10.11134650226298
C         3.52312114486553    6.71523516040185   10.67639699665942
H         3.72367933826148    7.08160489321263   11.67838301049396
C         4.50283161315260    6.05097619596432    9.96336509672717
H         5.47448981279782    5.88822294573940   10.40743589881758
C         4.23810345187122    5.61020680758215    8.67641071182750
H         5.00377223079448    5.09921596348898    8.11086587313346
C         2.99338043147602    5.83268549593398    8.10934045992884
H         2.78925301313872    5.48952182433088    7.10511371994731
C         2.01015581920434    6.49769912072912    8.82042927429003
H         1.04148663547937    6.67532308422882    8.37352669822213
C         0.04910669663712    6.51243656876220   11.83930613486584
C         0.21269283372923    5.16422144294322   11.54890106699225
H         0.94988337207086    4.85432389840112   10.82215750391789
C        -0.56712664793328    4.21929022834280   12.19455963275911
H        -0.43729827604020    3.17131123848570   11.96541366642929
C        -1.50857810416745    4.61033567287876   13.13177957547429
H        -2.11223371659769    3.86808968571264   13.63345648402762
C        -1.67130181614225    5.95513726631019   13.43048955097968
H        -2.40039597896415    6.26331739386506   14.16565226412878
C        -0.89167644770799    6.89919495563213   12.79240096899605
H        -0.99511407204823    7.95345419134188   13.02074717508230
C        -0.04544566654467    8.53494156707012    9.85170811184582
C        -1.37909383631365    8.17238950985360    9.70150528662244
H        -1.81939448133993    7.43161046371915   10.35362066448479
C        -2.14298514175768    8.76017542536478    8.70831620757020
H        -3.17770730338021    8.47206721624824    8.58945877399704
C        -1.58675815579771    9.70916710127304    7.86777241114527
H        -2.18780517915826   10.16085967435882    7.09143335690744
C        -0.26086394883644   10.08373066961932    8.02686256927418
H         0.17095393807508   10.83197009254397    7.37763129732703
C         0.50849251578739    9.50556776214194    9.01747945931014
H         1.53940566468682    9.79897861520631    9.16330028985753
C        -1.12542113876731   10.97922359904879   12.73083214237063
C        -2.31486066708909   10.37773490463885   13.12958514155594
H        -2.38679681036709    9.91044058440659   14.10237710345836
C        -3.41027398971273   10.38486058917439   12.28316810457661
H        -4.33240752913585    9.91696414782971   12.59776004871184
C        -3.32952073142913   10.99240919540130   11.04210349470307
H        -4.18926402032655   11.00191630427473   10.38800019157070
C        -2.14319376598325   11.58583188175165   10.63826181536570
H        -2.07871160180850   12.05579238489554    9.66785988013365
C        -1.04090215063710   11.56910969650819   11.46992924251972
H        -0.10059332794632   12.00261109755229   11.16039858635930
C         0.76715101650560   12.70258833263937   13.94441129275464
C        -0.18411956760550   13.70435991344686   13.78308966766846
H        -1.20205819898337   13.45018754542043   13.51859811305325
C         0.17709147083487   15.03094347304494   13.94016321598561
H        -0.56357621611161   15.80759125547073   13.80935603992259
C         1.48425121559522   15.36586398991482   14.25288368037964
H         1.76356263593135   16.40413360215167   14.36310124372364
C         2.43451926040732   14.36957366391645   14.40965192416708
H         3.45874278638350   14.62788138322059   14.63788807714763
C         2.07890204552458   13.04252094165714   14.25760457463298
H         2.82787193386428   12.26714834549066   14.33982767867863
C        -0.27304823184758   10.49215089505739   15.38110690505335
C        -0.93037664196206   11.38704954058314   16.21643746559538
H        -1.07908115189780   12.40929844925860   15.89932918854657
C        -1.38840338445442   10.96955598777638   17.45382755225942
H        -1.89917665176862   11.66845248088397   18.10060001750608
C        -1.19367653859543    9.66132014535850   17.86728434119268
H        -1.55119168672611    9.34279979092744   18.83550219798851
C        -0.53391129356668    8.76516418033109   17.04127161709861
H        -0.36938111524858    7.74612276346323   17.36031076818404
C        -0.07341910963492    9.18141326049302   15.80606568197985
H         0.46012272703170    8.49622538306303   15.15435674384014
O         2.10828028879706   11.88110132649296   11.45127458478136
O         3.38063654703428   10.11331957043536   10.40540200842403
O         4.19620066416033   11.13328361491015   12.44703513356093
P         3.87787771356173    8.51164247729224   14.32532142677140
P         1.06252340435060    7.85407864658735   11.12439140167760
P         0.39775365305586   10.93394196133819   13.72989793637852
S         3.44090803230046   11.33567730728477   11.20771282277724

