32
CSD_code = GEFWIA | q = 0 | S = 0 | Stoichiometry = C11H13ClN2O3PdS | MND = 4
C         7.48694668656798   -2.89407607735047   12.12441123137594
Pd        6.43648458902414   -3.59743612151095    9.62896855614243
Cl        5.91142213384824   -5.69986844120418    9.06501286050724
S         5.71120947111108   -2.65786124192797    7.67670569690069
N         6.97418200847323   -1.75704884678892   10.14373258400864
N         7.13656055129118   -4.00587420763855   11.45475140457845
O         7.71575413123844   -0.51151276027091   11.90292677329375
O         5.40848443643224    0.74276929725317   10.64111549261842
O         7.40663276924716    1.55700921408490    9.99649768544783
C         7.91874010437957   -2.94401745267560   13.44213654123237
H         8.18340321424168   -2.01615922624027   13.92496547725806
C         7.98779066932186   -4.16923830927075   14.08288126202041
H         8.31689305145055   -4.23596975992447   15.10868953157288
C         7.62377108578155   -5.30853457027325   13.37980251104854
H         7.66162463945249   -6.28282869699748   13.83997875573092
C         7.20104601905783   -5.18546074282656   12.06538739270491
H         6.90304356746385   -6.04799331605832   11.47869274526138
C         7.40115739045738   -1.58165687877770   11.38680713172170
C         6.84848382855499   -0.61817633975154    9.25783858684602
H         7.80852197450420   -0.40886090054994    8.76047617529998
C         6.46711860501948    0.62359772701872   10.08547519437897
C         7.23820217426564    2.68997905974787   10.84054710279163
H         7.96701134685308    3.42700759155134   10.51358665465510
H         7.42507000325512    2.39249845629178   11.87368576095890
H         6.22170804556504    3.07875214566926   10.75411811077078
C         5.74461332922825   -0.90894588303522    8.24312976372236
H         5.81813228844565   -0.27319837316816    7.36043482530353
H         4.77320746918722   -0.76153418937650    8.72358985968839
C         7.34120573423757   -2.80557967964794    6.86320878951141
H         7.39486096523790   -2.09334063685670    6.04398710699477
H         7.39198656133697   -3.82195378799247    6.47590200393276
H         8.14853115546916   -2.63938705150498    7.58125643172084

