127
CSD_code = GEFYEY | q = 1 | S = 0 | Stoichiometry = C62H56AgN4P4(1+) | MND = 4
Ag        5.93865025906828   13.81189506664707   14.17617575363241
P         7.27731678005111   13.36705368223045   11.99245242362568
P         8.00102299041785   14.14302137945469   15.58911745797345
P         3.86704083900329   12.45310132934274   14.65557188238983
P         4.62092063144514   15.88181058696772   13.32170147886016
N        10.43364863488526   10.02821088748413   14.69142069546870
N         9.67333327422598   13.37096110894049   13.41202439196175
N         0.88820708281456   17.42915869960926   16.11942649442148
N         2.21618488759812   14.69697264054127   14.07682098889561
C        10.09634094755517   12.04656021465332   13.43758984674562
C        10.62654723596396   11.41286475342366   12.30885638905342
H        10.72888530552796   11.93460251164667   11.36974258715143
C        11.03905343197349   10.09837215866242   12.39901866202293
H        11.45579918175546    9.59836405892177   11.53908369535703
C        10.91172900496854    9.43699212178700   13.61162406031797
H        11.20514300241042    8.40386722163009   13.72864015027691
C        10.05074475171524   11.28474906608378   14.61120215324128
H         9.66848287945728   11.69966698742088   15.53346930621439
C         9.06381079184719   13.91710420152230   12.23511676840945
H         9.62069256933771   13.64341823821391   11.33288502526541
H         9.05750051444672   15.00861634886863   12.31985968489451
C         9.62854609407271   14.14859261257409   14.61185545567466
H         9.82538768446124   15.19647978509819   14.35413281959197
H        10.41651618045408   13.80765681281729   15.29107606177290
C         7.52779210532836   11.58860259105930   11.70522777885168
C         7.94084976322758   11.05806343383770   10.48799696493798
H         8.10496823180694   11.70809854281456    9.63967612915033
C         8.13893689978228    9.69506968352927   10.36768915571234
H         8.45683236694070    9.28287631538701    9.42166822165680
C         7.94061349933924    8.85995638359709   11.45538674359263
H         8.10594399537957    7.79820170167088   11.35600758138179
C         7.53104599548287    9.38476701608006   12.67010599959628
H         7.38224862212339    8.73793644560850   13.52079491063881
C         7.31532462675510   10.74314639961711   12.78912273103122
H         6.98565764165858   11.16536571241202   13.73630792783888
C         6.92523053102173   14.01281715892006   10.32944391950905
C         5.91791080941388   13.38131376230226    9.60059525837676
H         5.43695203264508   12.50681514554590   10.01811359826754
C         5.55780490362956   13.84820783269889    8.35220106864050
H         4.78566902149544   13.34430602654945    7.78972206916465
C         6.19242552560204   14.95951663761408    7.81951861408492
H         5.92016029032571   15.31957795153933    6.83931496324529
C         7.17421094444688   15.60723292284576    8.54880388032892
H         7.66587327213294   16.47692085021575    8.13994133407937
C         7.53484961587460   15.14673274292523    9.80315465154176
H         8.29300986401425   15.67698233353580   10.35931384910208
C         7.96864819779883   15.85919887146492   16.19521769609820
C         7.79011632483315   16.17743642185191   17.53731893217591
H         7.75488083753512   15.39355029909083   18.28050124467923
C         7.65583804479881   17.49940577252769   17.92303245809781
H         7.52968681798856   17.73991325019929   18.96790354999301
C         7.67795148906729   18.51075087174974   16.97810170341461
H         7.57150172967402   19.54001130471490   17.28332524060353
C         7.82390446410331   18.19805327772485   15.63618538113518
H         7.82755024516054   18.98626561211187   14.89753954410043
C         7.95819884366617   16.88026759306836   15.24605043452085
H         8.04475906188081   16.63179395772985   14.19394826552598
C         8.45189107539614   13.17564816733835   17.05956016824915
C         9.52785584579475   13.53674590130146   17.86874837521751
H        10.09796957275326   14.42879775217727   17.64519004281925
C         9.85763089878667   12.75457548485420   18.95912556981214
H        10.69020342534379   13.03487349386344   19.58644732956272
C         9.12558399070405   11.61210036408694   19.24675155295402
H         9.39051110714458   11.00555246221056   20.09890630005984
C         8.06137134877105   11.24550453169131   18.43994273195356
H         7.49642846300264   10.35192705694642   18.65785360770911
C         7.72626754026849   12.02388302087726   17.34720252607142
H         6.90871012522399   11.73399169990628   16.69614686807548
C         1.77303433060079   15.40267031599970   15.18857522115215
C         1.71970588856221   14.82176410008304   16.45786336894717
H         2.04517001232367   13.80559901511735   16.61782216836127
C         1.26451778558953   15.56356217843811   17.53225792412870
H         1.22606449750925   15.12498585161743   18.51728047453442
C         0.86328943616262   16.87147533709140   17.31830962037730
H         0.50201378627160   17.49669624312325   18.12167144398956
C         1.31834295776136   16.72724766708422   15.09621998369257
H         1.28736263555095   17.25356880918370   14.15275492914759
C         2.25230353716964   13.26673945539367   14.07715379640478
H         2.08274080408040   12.91317406287446   13.05313454393259
H         1.44440774292701   12.88259616461852   14.70823789243064
C         2.83783954153362   15.37808991759295   12.97864958645766
H         2.28218829988498   16.27905493620125   12.69986625323727
H         2.85587724819109   14.70256938950743   12.11715471226643
C         3.38119831679596   11.77923223281257   16.27248635582870
C         4.08034109033725   12.18968646528105   17.40323633025107
H         4.89969620373083   12.89196124145864   17.29630245313562
C         3.71923252340145   11.71984514132494   18.65312603758229
H         4.26643593394965   12.03982014325316   19.52707494679010
C         2.65464844777251   10.84279074419685   18.77915431335163
H         2.37099406545369   10.47457951742008   19.75302222306927
C         1.94762577867762   10.43880123750054   17.65605516015917
H         1.11505542754666    9.75922762626306   17.75750563778272
C         2.30426241696216   10.90376611213378   16.40444330370999
H         1.75476206204700   10.58618498223948   15.52815276949877
C         3.91341449535555   10.98871160075271   13.57598716708369
C         4.09135973197894    9.69995744378702   14.06788792486048
H         4.11751945859784    9.52449348692059   15.13395430859314
C         4.23851255271894    8.63930512389098   13.19168295752461
H         4.36484376937467    7.64015118417512   13.58042618536819
C         4.22932681608234    8.85370897450943   11.82412197408071
H         4.34461683537794    8.02365703945505   11.14466936386765
C         4.08483919868058   10.13941169056596   11.32820453958144
H         4.09140721124108   10.30886776821152   10.26135859315885
C         3.93851242829527   11.20150364363759   12.19842749506668
H         3.85380114647594   12.21128142809252   11.81226441004924
C         4.99202729205430   16.90096481022084   11.86219277668872
C         6.00612514190215   17.84968419199107   11.98888284923173
H         6.48138766163769   17.98510553070740   12.95118040357653
C         6.37970559312981   18.62518757988779   10.90936968477814
H         7.15721660572859   19.36653000529054   11.02079442423708
C         5.75151648466882   18.45615272238345    9.68536133021465
H         6.03396496806610   19.06895620268380    8.84315559698429
C         4.76220021192273   17.49851787567291    9.54587195421358
H         4.27446467831128   17.36012285450507    8.59283761901638
C         4.38837814530357   16.71426127319668   10.62317482099100
H         3.62366370737219   15.96488997816597   10.48625364455724
C         4.37037640076806   17.10987416400022   14.63854238245285
C         4.57299723925526   16.67712212745602   15.94469071995125
H         4.89767629818228   15.65304224898999   16.12128083493556
C         4.35352939104113   17.53257121192108   17.00581433801598
H         4.49847571063153   17.18582009484480   18.01782015664858
C         3.94590275983038   18.83397118665615   16.76480701061865
H         3.77187027415685   19.50563223190395   17.59096388642249
C         3.75670991117559   19.27478969919806   15.46523170448219
H         3.43527220948978   20.28839682829152   15.28133709854687
C         3.96384411650864   18.41836601661200   14.40048430899482
H         3.80655581845084   18.76205566652887   13.38758498088264

