55
CSD_code = GEGBUQ | q = 0 | S = 0 | Stoichiometry = C22H27N3NiO2 | MND = 5
Ni        6.63816865878683   12.71443626191553    7.91881346127517
O         4.78102794152410   12.37109174530840    7.91532759680191
C         4.32023518714412   11.17389987772771    7.99033702312194
C         3.10155018025701   10.95301285734616    8.68098832123622
H         2.62507736650171   11.81397645344309    9.12685404745092
C         2.56546213233636    9.70088443614875    8.81563159344461
H         1.64714357319049    9.56521767626701    9.36972410773670
C         3.20785609913714    8.59456555356380    8.25972122926338
H         2.80249914724057    7.60380379467217    8.39922335056732
C         4.35944456514077    8.77672092804811    7.53333333522292
H         4.85810550123027    7.90983543451187    7.12396880502147
C         4.92774512839089   10.04485258055913    7.35722821485937
C         6.08644264649881   10.25032593345627    6.51530996879061
C         6.30508319685506    9.25484101771566    5.40140992941525
H         5.40430555423301    8.67860877332081    5.21848117346192
H         7.11065307770832    8.57071527156491    5.67008937038802
H         6.57479628918829    9.75818488629783    4.47748922763475
N         6.87372977277444   11.25879308239482    6.68441230491424
C         7.98941934567580   11.49511184529612    5.78415743133880
H         8.43576029626375   10.55139008978611    5.45228723040873
H         8.74203100282579   12.03354376795237    6.36347916558685
C         7.61660273401717   12.34519038962908    4.54928489370363
H         7.29568049335275   11.70608291019251    3.72327374817750
H         8.51843455244657   12.86743802668305    4.22272656106588
C         6.49800595463425   13.35913089981354    4.79415059887834
H         6.42300812932982   14.00816564714472    3.90260312280317
H         5.54364914102108   12.83487718282792    4.90592874274599
N         6.69949476321891   14.15166305262135    6.00331244079776
H         7.64106535515245   14.54480288684970    5.98725661771854
O         8.48443985914098   12.72057707370073    8.33403704512043
C         8.89173659075349   12.86892978586773    9.54474875549120
C        10.04544776833971   12.16760959930596    9.97518309350469
H        10.52255463903910   11.51476323233564    9.25880961172133
C        10.51978839377775   12.27990191195957   11.25465461088770
H        11.38898370435403   11.71313200055637   11.55802555701684
C         9.87715331583622   13.10614752533514   12.17613312102862
H        10.23261697211517   13.16483846459248   13.19379744843528
C         8.78837801918455   13.84426926066586   11.77847984768506
H         8.28621719490840   14.46556565674085   12.50637773422760
C         8.28478845729707   13.76742732995664   10.47451843677263
C         7.18933282002586   14.60270820823739   10.02850455625306
C         7.04322354012854   15.94130575854966   10.71367829914369
H         7.93922672695235   16.17956865598566   11.27722605374410
H         6.19444334915960   15.92263457954804   11.39787490887066
H         6.88220137865593   16.73347012481517    9.98651933903626
N         6.40692263661274   14.23844029962499    9.06809965374551
C         5.35333605562893   15.12552462261869    8.60731580610243
H         5.00115329382821   15.77013897430964    9.41851270611605
H         4.51947925093392   14.49720716158709    8.28533428738507
C         5.81011680936444   15.98757965845531    7.41698398491494
H         5.16162754470436   16.86376419194432    7.35161673847171
H         6.83448175896824   16.33169986888574    7.58065286078568
C         5.73461723273463   15.24180670548053    6.08641038209464
H         4.73743966154105   14.80544407155889    5.98225451448681
H         5.87851523994051   15.96148201432407    5.25994703312691

