54
CSD_code = GEGHEG | q = 1 | S = 0 | Stoichiometry = C20H27N2O4Pd(1+) | MND = 4
Pd        3.55228838546705    8.07834102801216   11.41350521456046
O         2.87455587488598    5.98688540904989   10.51084305342057
O         2.39725509273986    5.06602488216028    8.54142460437330
O         5.70907522619785    6.93316060928485   12.22465337616473
O         6.45405400388105    6.27781175830590   14.22690446061970
N         3.51697990241165    8.38811514139934    9.33428763362963
N         3.71437334301302    8.43933072638321   13.52945274949926
C         3.77654986808690    9.99676157170386   11.42399937691264
C         3.57298849120869   10.65882176675853   10.22293775307777
C         3.75914862944257   12.03520912714690   10.19806205128166
H         3.61421898361744   12.58976315012473    9.28310027024084
C         4.12914954446190   12.69617591259358   11.36080783065747
H         4.26602101426566   13.76596863514307   11.33663021814199
C         4.33155733002611   12.01457024787695   12.55205258244957
H         4.62297533458651   12.55223655323103   13.44159130030655
C         4.16305037894372   10.63604911944472   12.58853573937603
C         3.12696060628588    9.79627614516633    9.06374257374795
H         2.03394636228908    9.84536279161294    8.99350137691277
H         3.54570574604260   10.14024742875267    8.11123530177099
C         4.93366200718250    8.15285793229024    8.98342842898306
H         5.29657637856304    7.27708405291343    9.54110191170445
H         5.53722391473031    9.02041742168717    9.26387127114631
C         4.94344731331743    7.86099428784219    7.47598975271253
H         5.74238206033063    7.17070032118277    7.21633972949737
H         5.09894427449605    8.77466394474662    6.90386056876542
C         3.55329955522265    7.26894642972568    7.19435148123071
H         3.60308860444339    6.22829061059238    6.88258706819964
H         3.03799591601478    7.82468146213463    6.41329641214114
C         2.79223235837987    7.40194141139397    8.53238075789427
H         1.75242884908981    7.71401955588492    8.37930258351484
C         2.71227990182040    6.08303463748977    9.30951455439579
C         2.24532934031176    3.79122650891177    9.16678053605439
H         3.17755517366165    3.49431127136708    9.64956708444258
H         1.98881156750377    3.09667056203506    8.37196511514254
H         1.45071379497748    3.82920650720426    9.91325672266617
C         4.40057149632022    9.72881848155506   13.77113644474843
H         5.47669624998842    9.54043619550322   13.85722290148638
H         4.05663773918389   10.17285593079747   14.71457844190432
C         2.32811542412429    8.42124222268400   14.01157524780448
H         1.71375506551234    9.13853791735644   13.45890864630113
H         2.30052969586194    8.66617161809568   15.08328920548970
C         1.93423380946022    6.96477006267021   13.77972479586507
H         1.66040788115128    6.82292546013189   12.72282153532296
H         1.09779224043682    6.65440485663194   14.40145256239148
C         3.22871495325327    6.19210440078714   14.11005820146953
H         3.15982765967473    5.66196927465091   15.05749823772674
H         3.45352962110615    5.46664071724861   13.32543916842575
C         4.32690957033217    7.28294950011707   14.17968937313471
H         4.60339173810902    7.50021848457530   15.22066892700377
C         5.56899529275003    6.82785760612815   13.42353625715324
C         7.64339564572172    5.75788350538748   13.63017197073881
H         7.39387853740853    4.96881343041044   12.91915151021702
H         8.24085534548159    5.36194635137660   14.44654413594681
H         8.18043690622090    6.55159506234055   13.10877099123973

