91
CSD_code = GEGJAE | q = 0 | S = 0 | Stoichiometry = C38H41MoNO8P2 | MND = 6
Mo        1.48195106520879    5.00122880041368    7.53047037120053
P         2.81801987478494    3.03777390855895    8.08578969076333
P         0.14229661113674    2.96112713913767    7.67021842696354
O         3.62926915063437    7.20779129030189    7.55789426624386
O        -0.64831244223251    7.09248803093874    6.77382714511940
O         2.03575711389625    5.01376777528450    4.49726783081505
O         0.92296191615994    5.97855646246323   10.40200489992371
O         3.84636230430885    2.40157376877584    7.01011806699846
O         3.47914898306304    2.44599928928836    9.42695464227696
O        -0.52237593833060    1.94121969860907    6.61756140981097
O        -0.89346035141111    2.70870908361837    8.88771560031887
N         1.47884572692422    1.99714422088470    8.05713608647314
C         2.82458247918759    6.39384308073709    7.55049203828001
C         0.14704295556758    6.31725708325483    7.05105670148380
C         1.86634961114959    4.85729071193955    5.61611384838751
C         1.09498338411894    5.47748995200025    9.38957582473829
C         1.38649218821326    0.63173768419367    8.55111778622906
H         0.35931024430818    0.48203723967198    8.89765860317957
H         2.05933366937153    0.52032346116931    9.40668628899733
C         1.72796206200008   -0.41314230455335    7.49617224911281
H         1.62752955948271   -1.40957747141092    7.92206149478101
H         2.75087913313467   -0.28065407681445    7.15454928959347
H         1.05840811965278   -0.32438936650709    6.64416509805919
C         4.21275385913423    3.01707383063181    5.82360447578913
C         3.67831445274996    2.55461484135485    4.62067582569751
C         2.64297295435746    1.47311104353626    4.60928442836951
H         2.17055752627831    1.40778932448282    3.63218980711913
H         1.87869273834573    1.67138013574833    5.36153782200941
H         3.09805035393953    0.50919382032403    4.83761046502730
C         4.11863820744241    3.13330589119057    3.43847336936185
H         3.70949908340731    2.78711319603252    2.50103680295603
C         5.05123519640299    4.15328115034423    3.45118732309918
H         5.37200909745767    4.60258078443109    2.52378787297461
C         5.56732444609739    4.60185001878756    4.65222989333242
H         6.29348791777142    5.40064242749849    4.66537987205901
C         5.16372930587598    4.03789242940490    5.85459158165767
C         5.74817765040914    4.48654517417479    7.15671204649472
H         4.96078726957409    4.66736506686883    7.88999823401894
H         6.31691870318835    5.40299069425642    7.02751451605380
H         6.40698407955350    3.71795969790725    7.56384596135896
C         4.77482981441666    2.66612035128671    9.88266886014807
C         5.72768725120032    1.66374889543746    9.69439772460812
C         5.37155926095050    0.38613623023459    8.99976401256990
H         6.24317843134873   -0.25694581201526    8.91149691064774
H         4.98114991381547    0.59134567862118    8.00541996486892
H         4.60032423817642   -0.14326634553826    9.55844779610270
C         7.01006038872914    1.87541900240178   10.18281682674059
H         7.75928217483353    1.11133192669136   10.03704358557575
C         7.33443398587493    3.04240593958943   10.84917532448290
H         8.33782836311664    3.19355003522451   11.21715205175055
C         6.36765251339403    4.00763864839462   11.05666003965812
H         6.61152849836787    4.91176107884344   11.59377753790229
C         5.07374048508180    3.83376021719768   10.58357888784205
C         4.02319561773447    4.87046683873357   10.82451588522257
H         4.34654483337834    5.57142751649587   11.58947450420385
H         3.09184723809540    4.40519109904905   11.14506892247623
H         3.81842759556074    5.43599722589349    9.91283925770280
C        -1.82334136813074    2.02195055678555    6.12948380961183
C        -2.12332606737566    2.90854675933800    5.09610123697718
C        -1.06660544678070    3.79424206552037    4.51695114432925
H        -0.12854959395268    3.25175773102116    4.40875267564494
H        -0.88458667137868    4.65543411355923    5.16354156334246
H        -1.37273315441564    4.16605306983465    3.54250049581593
C        -3.42494032567621    2.94715975642671    4.61352448625651
H        -3.66826502531534    3.63664090414731    3.81922438771749
C        -4.39969623192905    2.11833455646432    5.13505215408074
H        -5.40888472282759    2.16297449354507    4.75472413733632
C        -4.07535697090257    1.21958638692016    6.13406012315440
H        -4.83065999970179    0.55624612558085    6.52901718345372
C        -2.78560747642651    1.15150771829578    6.64360081090885
C        -2.43637947828671    0.16146121080087    7.71152939652960
H        -3.26666321914928   -0.51730430682525    7.88844492544080
H        -2.20377728679209    0.67723065464998    8.64196756827191
H        -1.56169431770886   -0.41706243390835    7.41906548459714
C        -1.20564879753517    3.65690819670152    9.84774037484460
C        -2.12205118133731    4.66068853104396    9.53337070850913
C        -2.73564523152046    4.72092408588393    8.17010680866182
H        -1.97245056994459    4.61548514279892    7.39730934837003
H        -3.25175744130919    5.66512792055678    8.02153416058405
H        -3.44855401471200    3.90521915538485    8.03885386095624
C        -2.46454936319238    5.57203596795612   10.52305271849042
H        -3.16141843495390    6.36282012739131   10.28956858061610
C        -1.92442972290522    5.47545386477243   11.79150880792327
H        -2.19595187971677    6.19382145817493   12.54980096767949
C        -1.03472260738215    4.46000010780909   12.09045864438743
H        -0.61370125617029    4.38539279208787   13.08206304328861
C        -0.65662701865412    3.53832032784192   11.12485473085898
C         0.32757666378937    2.45104560407295   11.43070594693138
H         0.67754061737274    2.52930013697100   12.45684406309602
H         1.18668314968735    2.51938812311492   10.76124047708152
H        -0.12876642114089    1.47153557980385   11.28977912462497

