122
CSD_code = GEGROA | q = 1 | S = 0 | Stoichiometry = C43H72N2O2P2Re(1+) | MND = 5
Re       16.89649588929008   13.43011213500493   11.57922898200354
P        18.02346756139465   15.71457207977961   11.62866112324983
P        15.03005154851347   11.78637390660576   12.13324773990112
N        15.92281962363537   14.10262411527750   10.24977656879289
N        17.49230347555097   13.20198213673684   13.23444258611166
O        15.28073058883516   14.66968312712370    9.43506387532757
O        17.85544791902360   13.13006904506899   14.35948187959592
C        18.20810988221684   12.26623817805352   10.48021485416605
H        18.01982281656891   12.24058160110462    9.39808182911154
C        19.31605810926504   11.43024892594927   10.79170970977147
C        19.92759794530168   11.37962892420681   12.06323100339466
H        19.57089739016625   12.02774895358389   12.84764060033610
C        20.98871930884756   10.53870655486547   12.30974138623118
H        21.44371393855154   10.52147674636455   13.28842200735549
C        21.47545203701722    9.70996849256589   11.30644636839681
H        22.30446820932479    9.04863804719470   11.50550517733912
C        20.89698481292126    9.74047053874671   10.04471854904035
H        21.27692522168478    9.10131855063857    9.26217198167784
C        19.84486857299044   10.59051314733005    9.78549278340991
H        19.40143859890338   10.60938315621788    8.80015367078231
C        19.73220450611329   15.59807476766374   12.35556415573544
H        19.58280119670715   14.95629993391254   13.23671631411299
C        20.38359549746369   16.89731369680856   12.83150194184842
H        19.72484296372432   17.45748192277588   13.49591891035271
H        20.62918820062004   17.53455384797566   11.98237865696336
C        21.67109695505573   16.54847994406953   13.58154043050087
H        22.14999525193257   17.46729169412110   13.92297438026517
H        21.42595895798542   15.95287361579728   14.46390821092043
C        22.63121576009751   15.76461523837610   12.69115212653865
H        23.52537763003705   15.50186384941908   13.25722759051878
H        22.94164681393915   16.39132697810506   11.85230957653571
C        21.96301554203144   14.49997009472438   12.15777619080073
H        21.72489071526357   13.83123927935455   12.98740288922408
H        22.64230809245558   13.97028221801858   11.48818550951758
C        20.68350950120460   14.86483807874995   11.41034457271633
H        20.94433948956326   15.51617543939357   10.57502058062847
H        20.19959006333425   13.96826057242719   11.01188345709168
C        18.02519430466367   16.54461042234808    9.96500605915863
H        16.95674660576581   16.72577691737926    9.77633121545252
C        18.52703134857320   15.64792240308568    8.83152474646381
H        18.05416050337797   14.66420562425191    8.88702749005832
H        19.60452851926398   15.50269930095851    8.90625959202687
C        18.20500720146831   16.30932690121370    7.49282448954869
H        18.55747389434788   15.67622802256705    6.67735973126285
H        17.12269605339515   16.41430149442191    7.39019570024161
C        18.86603117361098   17.68219261740127    7.40710329458154
H        19.95168379062341   17.56283290154568    7.42731649817538
H        18.60224832446992   18.16178718663576    6.46403230625219
C        18.43164743237766   18.56559468991666    8.57299485030624
H        17.35832806544550   18.75698169427787    8.50561747082749
H        18.94510014694119   19.52695793932735    8.52200757607534
C        18.74600241715520   17.89098798008962    9.90884991341680
H        19.82380569211157   17.73709367399243    9.97839715260813
H        18.43605435486803   18.54284061197989   10.72779714179162
C        17.10516907375165   16.89621314321028   12.73218724917976
H        17.63654982469407   17.85431541996627   12.67029115840560
C        15.66166840030225   17.09408722464354   12.26658448305145
H        15.62730657286526   17.45806224592750   11.23788661162348
H        15.14226936639942   16.13016234734202   12.30059149403148
C        14.94299110919784   18.09514584023258   13.16896990950595
H        15.42955175297653   19.06906154003447   13.08072803015789
H        13.91052199452551   18.21102965391657   12.83396057413019
C        14.97402704882880   17.64602481984544   14.62628078466110
H        14.41558296964601   16.71412519415962   14.73798141371950
H        14.49315371157118   18.39712657511323   15.25368499910253
C        16.41205713756795   17.42806960605595   15.08259819993452
H        16.95524323055330   18.37513582807669   15.04766667031185
H        16.42774595173480   17.07301148081830   16.11410338458902
C        17.10685345420490   16.40933488755161   14.18287666883456
H        16.56887336386344   15.45888999321028   14.24403688579747
H        18.12329285898941   16.24090161038617   14.54192116601498
C        15.57067015050606   10.66450554232754   13.51524236403841
H        15.89359135077632   11.35292467119068   14.30888185532888
C        16.78962565186124    9.83716508718972   13.10135451509278
H        17.53900714937257   10.47630783236341   12.62686143376547
H        16.49755059319292    9.07065719192120   12.38033125039833
C        17.38106050960898    9.15341865914543   14.33134247695591
H        18.25289005592006    8.56563860442528   14.03959081891051
H        17.71214807258653    9.91157492296418   15.04435364879812
C        16.33677860958675    8.25316492528337   14.98585354748737
H        16.75076039236349    7.79851381732872   15.88640013251437
H        16.07166327598304    7.44731038346240   14.29786292413878
C        15.08383163733657    9.04877974955712   15.34083003409463
H        15.33156623039679    9.80124876228037   16.09300206288783
H        14.33200038448322    8.38448915453417   15.76947000259488
C        14.50684219653830    9.73831850237381   14.10298500873519
H        13.60857862952795   10.29123258458575   14.38439155042234
H        14.23213619962275    8.97498658039707   13.37306547421168
C        14.48211981906058   10.65239387938178   10.75931746452899
H        15.16400817440633    9.79531371799436   10.84688098205286
C        14.69539889495564   11.26011310876650    9.37178808774053
H        15.72154823909573   11.62791719359101    9.28576542344423
H        14.01768009089122   12.10217489837548    9.21691297330589
C        14.43652398245267   10.20691692754946    8.29741484898068
H        14.57925398144430   10.64921772908889    7.31043416517722
H        15.15671822467135    9.39271343589374    8.40737748078765
C        13.02030514696797    9.65394313785628    8.42010993802657
H        12.30031768516693   10.45361463488757    8.23368948622589
H        12.85861255865623    8.87943497966788    7.66989550105903
C        12.79246943810286    9.08004542978118    9.81456574415784
H        13.46494664492440    8.23431703543484    9.97579029991939
H        11.76880947704584    8.71339414809714    9.90372576413731
C        13.04313829007783   10.14516367912235   10.88227051692606
H        12.85603404422320    9.72037188624975   11.86902030527087
H        12.34018450144079   10.96487339657388   10.72644734854612
C        13.51831996729032   12.65510617149082   12.77596814362394
H        12.77224834840952   11.87685480358870   12.97693318618200
C        13.82976329225115   13.40685962533826   14.07099315163727
H        14.21319709768908   12.72635651308954   14.83373894260144
H        14.60317465809154   14.15658015391226   13.86963569257366
C        12.57311683254581   14.09355011432511   14.60256257271782
H        12.81611742047939   14.64369664802267   15.51370294256406
H        11.83441512541818   13.33249765971966   14.86412423977903
C        11.97624697488814   15.03777482918651   13.56362410576896
H        12.67585860609844   15.85087388053449   13.35795858655787
H        11.05911237559518   15.48108024855247   13.95285431041875
C        11.68448892751494   14.28672988425473   12.26926591194009
H        11.28904562505377   14.97350078046434   11.51928328348678
H        10.92830106482188   13.52001934450042   12.45230906197497
C        12.95775797845288   13.63186340283239   11.74139652554104
H        13.69798024195267   14.41103181070261   11.54099760649041
H        12.74733694254981   13.12395061383837   10.79859322392288

