46
CSD_code = GEGXEX | q = 1 | S = 0 | Stoichiometry = C16H25ClN3Ru(1+) | MND = 9
Ru        3.65660128163365    9.44219143789582    3.58958126805146
Cl        4.34743465642018    7.19359272494724    3.62650672575665
N         1.47667608815595    8.15299145362231    1.90813870215456
N         2.89449210747148    9.17638854614130    0.66010418246368
N         5.38974364680592    9.58401221990710    2.30240006203579
H         5.77077662899469   10.53258192696125    2.35683368616473
H         6.04431279601064    8.95270306937659    2.77924880358262
C         2.59766382450349    8.89323085708019    1.94851027460460
C         1.06293632984768    7.98845820361670    0.61359372793042
H         0.18516162322420    7.43266239480301    0.35682636964370
C         1.95729077660959    8.62707129807167   -0.17428927411159
H         1.99916538971502    8.73197803217732   -1.23830306022510
C         0.82928936827490    7.52914679545187    3.03143401471145
H         1.55804534152738    7.39731298185313    3.83252009975560
H         0.45596606585082    6.55069546068533    2.73328476281170
H        -0.00977810301524    8.13131864637512    3.38381285292303
C         4.10284367148240    9.83569733394306    0.22796849439119
H         4.06690866427039   10.89924750935799    0.49358205107316
H         4.17332540725486    9.74730797033761   -0.85690731396705
C         5.31371862071705    9.17919451733582    0.89309787174589
H         5.19689608407556    8.09081906624668    0.85999211080102
H         6.22699978574079    9.45849539503773    0.35666610372404
C         4.14630069255781    9.60867003819608    5.85586669282004
C         4.66474888234516   10.72633180867674    5.19926065027078
H         5.69779231130660   11.01394496400352    5.36859882291591
C         3.83901032727839   11.55629836345386    4.39202070682777
H         4.26035769160699   12.46437134185725    3.97476648145605
C         2.46054280233415   11.31070403441257    4.26779522353386
C         1.93872091370349   10.15228141655553    4.91461670465875
H         0.86659412456960    9.98337520139756    4.90348843024658
C         2.76547591616900    9.30891265144520    5.66939812840489
H         2.33447660609072    8.47417545753290    6.21292519645180
C         4.98212921951663    8.74841471290589    6.74611557655881
H         4.51942022519429    8.66142321687568    7.72821855999213
H         5.98480674704468    9.15265538763339    6.86226324514610
H         5.05877591849134    7.74351670225109    6.32695698979426
C         1.53008077526116   12.29361359608579    3.59762604021115
H         0.53222374232447   11.84334093457210    3.55449880816078
C         1.96176057830336   12.61663181231428    2.16695835751798
H         2.01476351916034   11.70190707790214    1.57843737882454
H         2.92947931084001   13.11176467996694    2.14837052266233
H         1.23680257395547   13.28148888927190    1.70585148502005
C         1.44572273581915   13.56674856288073    4.44713086624428
H         1.13909080626649   13.33053267075721    5.46348928575566
H         0.71601309464716   14.24781451585375    4.01851390978503
H         2.40664042964036   14.07408412197746    4.48552942072380

