71
CSD_code = GEGYEW | q = 0 | S = 0 | Stoichiometry = C24H40N4P2Pt | MND = 4
Pt        6.12720456525712    0.00057318003277    1.83730782298514
P         7.62135727479153    0.93260248851599    0.27999985994192
C         8.02235631529595   -0.45133321907191   -0.89268246519787
C         9.26131110499544   -0.29238675845054   -1.76351437364039
C         7.52360896390996    2.39185690243969   -0.88556372067892
C         8.73568468448220    3.31240868231912   -0.94265968580386
C         9.23686404830007    1.12909475631757    1.15247504271524
C         9.53560766523506   -0.11931256445020    1.97679870368715
N         6.58510361282593    1.17282296599643    3.46668390568161
N         6.38955327845770    0.55633613938923    4.63509024649943
C         7.19145373826426    2.40361839961084    3.50387849122738
C         8.01363401028539    2.79822921407410    4.56777934190190
C         8.61514527274583    4.03866897919675    4.55475371778265
C         8.41849575563058    4.91289578231642    3.49547255902289
C         7.58307012416928    4.54307381757809    2.45257040240072
C         6.96733023690855    3.30893579439554    2.45923416244988
H         7.14112738679154   -0.58437126635772   -1.52824476791663
H         8.10505824042612   -1.35295085653908   -0.27707503193947
H         9.34194290700313   -1.13963543292045   -2.44313810882890
H        10.16660650178711   -0.26038434029884   -1.16333100084636
H         9.20899028238577    0.61386944127305   -2.36253568249845
H         6.65300183546609    2.97832041876491   -0.58171031724667
H         7.30717357113709    1.99033621029783   -1.88004939415897
H         8.52685954617241    4.14229351343409   -1.61653623731963
H         9.61727912627283    2.79498474279729   -1.31203384071405
H         8.95543420080138    3.72049401252067    0.04053604818761
H         9.14338334640830    1.99276837573707    1.81403165129058
H        10.04003198291262    1.32902384688509    0.44124595180901
H        10.30336587198771    0.08698379465648    2.71925910420747
H         9.87800616212285   -0.93872062750356    1.34816175032602
H         8.63137332427808   -0.44861868543956    2.50421480418693
H         8.15914411397128    2.11320277880847    5.38876247577428
H         9.25298148204605    4.32938693922306    5.37756041743493
H         8.89845948197699    5.88035365999891    3.49091581155464
H         7.39654908209036    5.23216350390195    1.63987520576677
H         6.27216187239478    3.02727198152673    1.67657078539917
P         4.63161626939131   -0.93276869176872    0.28101936803614
N         5.66789049083776   -1.17199170193539    3.46627507266908
N         5.86281876823826   -0.55560936698554    4.63484142362116
C         4.23016963040032    0.45081782669836   -0.89197385537301
C         4.72933302570796   -2.39183716889586   -0.88487932815667
C         3.01588984636536   -1.12946124941467    1.15297846124589
C         5.06167027094384   -2.40291447982705    3.50314861500996
C         2.99101748609520    0.29191766776492   -1.76260512857728
H         5.11116631596672    0.58402188667717   -1.52783004366183
H         4.14753722073536    1.35252952342308   -0.27649734067125
C         3.51758038234478   -3.31280434952250   -0.94178902601938
H         5.60015326356986   -2.97798135185692   -0.58109050530380
H         4.94554797061102   -1.99031514348270   -1.87942490102842
C         2.71718578339349    0.11889123358218    1.97742595340209
H         3.10957619940949   -1.99314318101543    1.81447199220142
H         2.21273165361502   -1.32945699740335    0.44172561388471
C         4.23861682803087   -2.79757498079026    4.56640526150570
C         5.28712604385447   -3.30845886718557    2.45897605608415
H         2.91022839496435    1.13901380698279   -2.44241263575894
H         2.08584825627932    0.26009088313692   -1.16222714756719
H         3.04313983657653   -0.61446973667589   -2.36144530328559
H         3.72650437684880   -4.14265524811067   -1.61569386673425
H         2.63573187243163   -2.79568119600493   -1.31096286012959
H         3.29817985505307   -3.72095063209610    0.04145756935258
H         1.94954797127905   -0.08758807435116    2.71993944809931
H         2.37460234193794    0.93831444649074    1.34891467571171
H         3.62140752767535    0.44831075162544    2.50479346416479
C         3.63734877352960   -4.03814606676579    4.55302857118964
H         4.09212706524222   -2.11242020089317    5.38710986708347
C         4.67152183833298   -4.54265452437362    2.45187793718059
H         5.98327659638770   -3.02695153994781    1.67713626071182
C         3.83510446606042   -4.91243564354355    3.49400987144328
H         2.99831869426161   -4.32864883916777    5.37497464296446
H         4.85909733127334   -5.23193858883781    1.63959994228157
H         3.35517638235215   -5.87990677640006    3.48901823895313

