57
CSD_code = GEGYUO | q = 1 | S = 0 | Stoichiometry = C28H24IrN4(1+) | MND = 6
Ir        4.19428889588807    1.65584975082646    3.93760620761364
N         4.03372050199403    2.55883965689155    2.11664977231629
C         4.50563362744601    2.08731214809188    0.96359154217050
H         5.07945926417666    1.17215937691254    1.00740706317208
C         4.31246087688064    2.70820568955794   -0.25359193824918
H         4.72051547952617    2.27749806198265   -1.15312035491227
C         3.58975929400218    3.89409737108831   -0.28393215769826
H         3.41599355854978    4.40951562820488   -1.21525275811750
C         3.10890332596277    4.40253492412962    0.90494119485225
H         2.55541877443558    5.32639366420182    0.91276272090127
C         3.34267977245044    3.72527686906305    2.10286760462676
C         2.90536949527465    4.18461295718163    3.41217079871644
C         2.18089237314818    5.35861283174829    3.62705944112058
H         1.89387373360599    5.98660190732523    2.79799653563745
C         1.82557204673050    5.72600529414765    4.90835639581715
H         1.26761540805175    6.63431670830290    5.07437807221306
C         2.19458314722771    4.93015768310211    5.98176367395394
H         1.92449302982579    5.22209406203329    6.98536369333942
C         2.91235958693287    3.76196760208021    5.77596345701565
H         3.19160280859826    3.16985992162409    6.63553282351420
C         3.27605452019165    3.36275002699002    4.49692814396474
N         4.36181530804976    0.91304774293366    5.80527787662369
C         3.43467596356690    0.17711474417011    6.41852474277948
H         2.52191441453193   -0.00895164578535    5.86815404421322
C         3.59067006284613   -0.32466523305612    7.69515582926551
H         2.80895203253904   -0.91404522749448    8.14545815990117
C         4.76858621794636   -0.04603766308215    8.37814951732600
H         4.92703904462621   -0.42225429669664    9.37649634225063
C         5.72544847434850    0.73222204685370    7.75894768878887
H         6.63981919741999    0.97787228302024    8.27246337716172
C         5.50481570934934    1.21454115656268    6.46775479677630
C         6.41271923143301    2.07963029160741    5.72998212012888
C         7.65863069780871    2.49273314129935    6.20347113571867
H         8.02374337843434    2.15249944350355    7.16028589596551
C         8.43599728273474    3.34366292113090    5.44494838618759
H         9.39864397943827    3.66557761742552    5.81066463571030
C         7.97360194047929    3.79046157112819    4.21695969669344
H         8.57793422879545    4.46400906325458    3.62802255816911
C         6.73807265896186    3.37941716324058    3.73999064379098
H         6.40223930141910    3.75181252400647    2.78243354399568
C         5.93758157845428    2.51609888813044    4.47486780289078
N         5.06711621779655   -0.40941513326320    3.24839276315107
H         5.37946938338436   -0.36875721004935    2.28216325615344
H         5.87256119642372   -0.69858419391466    3.79682334646564
C         3.99107330000126   -1.39818456823541    3.37183621861475
H         3.92141757141775   -1.69938553732858    4.42359322140618
H         4.18439039485007   -2.30254786377970    2.78148971607225
C         2.65753148673606   -0.81305033022079    2.97489748619464
N         2.42720790868414    0.45817425041006    3.30827173178482
C         1.70184165172097   -1.58738411457502    2.33086263028350
H         1.92051072127830   -2.61187251441506    2.07320085521671
C         0.47111202144598   -1.02797826235459    2.02929109064562
H        -0.28600721189877   -1.60929191416912    1.52693230315773
C         0.23544137575890    0.29057899899982    2.38840794458394
H        -0.70864337723351    0.76627907423186    2.18045489395231
C         1.24368331671891    0.99260154513256    3.02377902814782
H         1.10284381883278    2.02010910589251    3.32945278786464

