87
CSD_code = GEGYAS | q = 1 | S = 0 | Stoichiometry = C44H39NOPPd(1+) | MND = 5
Pd        6.09694958441041   14.53129219451854   20.48503443246095
N         4.51596598527657   16.11587035318821   20.63461414969203
P         6.45275915904952   15.58720274483637   18.49701046907986
C         3.55765097504897   15.96306100859264   21.72523329916714
C         2.82121100481408   14.63585053614245   21.59546361566616
C         4.36197436999346   16.04033732642259   23.05375239152341
C         5.34326001169588   17.18167848759334   23.02533432600690
C         5.00836592716941   18.42834925046749   23.53867403742242
C         5.87413702225226   19.50134820270381   23.41521057653885
C         7.08995666405724   19.34376099084335   22.77410320496724
C         7.44920999723668   18.09987115460989   22.28244751353552
C         6.58669757716711   17.02584861671999   22.41316394868847
C         2.65539569437370   17.20027041549508   21.54282568280768
O         3.38358761416891   18.02514905567475   20.64133329232400
C         4.41363700482140   17.31047158081648   20.17615810353940
C         5.31311237663783   18.02450495140414   19.27549072062242
C         5.18939436428894   19.41427745895701   19.23442714988925
C         6.03978193032840   20.17937539313914   18.46017575558611
C         7.02651141480807   19.56321352933216   17.70882003441652
C         7.15704763608874   18.18563088568781   17.73606990251849
C         6.31329876994754   17.40033418448751   18.51502828247017
C         7.95880751551454   15.29094203433610   17.53064323801263
C         9.15629235668514   15.60797507238173   18.17230075980514
C        10.36106213462475   15.42041960043272   17.52536919625581
C        10.37716186373372   14.89455030079463   16.24187098059938
C         9.19137113518983   14.55197645817717   15.61474422239368
C         7.97855353378720   14.74586525607992   16.25429879012575
C         5.02820138634493   15.15013033276273   17.45847352265637
C         4.79760556194283   15.76547225267523   16.23130983795229
C         3.69036316283252   15.40873253992674   15.48270784405345
C         2.80777591878135   14.44987913711303   15.95563254806916
C         3.02433854625636   13.84826069232646   17.18545083546500
C         4.13119084259998   14.19867334887977   17.93703027010852
C         7.63713165725209   13.12595757576726   20.38364962879445
C         6.59603375478018   12.53477860731322   21.15579877272717
C         6.24241091569025   13.09426918126868   22.37452551369777
C         8.02265616682073   12.54057856010298   19.09616588072399
C         9.36850914167323   12.41080851446667   18.75446351059216
C         9.73525385795655   11.82298831822319   17.55881318872720
C         8.76797660717000   11.36679820491982   16.67936447521412
C         7.42646109462198   11.50600912364770   16.99877035354610
C         7.05611008945527   12.08553661892305   18.19541368555458
C         5.20865979469821   12.57339588209601   23.26015737772493
C         4.20259842665273   11.70275407926726   22.82668466243663
C         3.26266753998520   11.21590677011313   23.71255749324240
C         3.29940278114635   11.58639345833584   25.04787101321583
C         4.28660998424798   12.45075296762232   25.49322346783686
C         5.22781402306735   12.94181105308208   24.61079059070320
H         8.45968767913367   13.59700757789688   20.93838079746937
H         6.03821195486510   11.69767023435491   20.74246699257248
H         6.99249150276973   13.71799426637684   22.87419236597743
H         2.26012484433849   14.41542353074997   22.49918626704048
H         3.55259737638562   13.83751946061111   21.43381828550806
H         2.13891686006691   14.65960597179552   20.74777115320584
H         3.65520705353397   16.14985924124468   23.87716842691173
H         4.89453436428051   15.09656493585039   23.18040319426484
H         4.06539502816299   18.56298572744005   24.04902056217741
H         5.59592286287770   20.46245605577971   23.81990507394832
H         7.76142630544798   20.18174267910912   22.66906636932144
H         8.40623174735568   17.96673314165093   21.79937110404284
H         6.90384146236528   16.04045440910456   22.03242453902984
H         2.48702436960511   17.75803017417918   22.46369335250911
H         1.69031498263930   16.95304968245413   21.08829886255131
H         4.42184468763367   19.88610640544326   19.82662630502409
H         5.93235844374378   21.25248411507046   18.44359000551921
H         7.69466597208342   20.15177539441290   17.09903048181680
H         7.92758665586202   17.71385723122006   17.14414834443517
H         9.12055733377156   16.00786975811586   19.18083172925982
H        11.28708171580395   15.67701011462091   18.01722062498457
H        11.31748275377537   14.74529112306065   15.73412592777321
H         9.20864858671812   14.13143492291139   14.62098398143508
H         7.05549485852776   14.47144246622213   15.76519105671056
H         5.48122629418716   16.52207539806911   15.87110154628044
H         3.51264823696249   15.88145712447935   14.52878670828296
H         1.94605489684158   14.17552637755957   15.36689657735858
H         2.32908526523699   13.10873122343369   17.55409008475866
H         4.30666246911373   13.74130406252885   18.91772656770620
H        10.12860943723948   12.75824400719631   19.43924135086350
H        10.78094360962411   11.71921990518112   17.31290666081613
H         9.05726519142992   10.90682953124797   15.74728520048258
H         6.66815240694438   11.16006069416912   16.31232080096272
H         6.00326960441476   12.20029203346497   18.43200409617858
H         4.14875272418919   11.40527065978709   21.78883263143542
H         2.49623538248394   10.54214503566384   23.36084693720921
H         2.56375758907912   11.20186579684145   25.73683714906467
H         4.32437837143226   12.74039778488953   26.53212951181666
H         5.99888424760972   13.60979746490549   24.96962582818073

