100
CSD_code = GEGZUN | q = 0 | S = 0 | Stoichiometry = C51H43CoO2P2Si | MND = 5
Co        3.88267391362237    0.99883319253273    4.66379595030888
P         2.23565138305916    2.17803823737018    3.49909695543338
P         3.78713635072645   -1.20970471608872    4.17455635580284
Si        5.21230223030226    2.45050817735644    5.91322679499778
C         5.14576597413331    1.23003259767313    3.47767876349817
C         3.02195457529937    0.70683487929543    6.15365327252456
C         2.74454317772697    2.72148204937271    1.83292802705738
C         3.86697222315945    3.54674924444479    1.77221403022436
C         4.36992805778910    3.95392904561828    0.55276417648533
C         3.76668779147782    3.53042364669287   -0.62181270747975
C         2.65578182727278    2.70627699577547   -0.56704766058504
C         2.14224013735949    2.30061246162256    0.65351792900039
C         0.58206590576995    1.47004927678820    3.15110968235604
C        -0.61009905234735    2.13558002580338    3.41444381199128
C        -1.82138268870763    1.52619303541817    3.13576474717773
C        -1.85984060571785    0.25377651034467    2.59070664724219
C        -0.67650452540293   -0.41567670678635    2.32418446198954
C         0.53391276955692    0.18747587140290    2.60792404180991
C         2.80786546917592   -3.56465576293587    5.42828101738120
C         5.33046744695021   -2.03623369369755    4.67135284843278
C         6.29711982162353   -2.43326441976857    3.75532710167458
C         7.48620307962717   -2.98337469391441    4.20290634501716
C         7.71954040738517   -3.13371454065554    5.55916897478451
C         6.76697265583495   -2.71802986015526    6.47757787306287
C         5.58236896964372   -2.16270444109524    6.03722431744989
C         3.61721218610091   -1.79242511332434    2.44420648855688
C         3.68385057723358   -0.87500079067020    1.40182976673431
C         3.55949430149697   -1.29285739087964    0.08874637069592
C         3.36454158011805   -2.63380404667168   -0.19389670613313
C         5.43923866465766    4.15205295415847    5.04835971297312
C         4.59979024123664    5.23025150423589    5.30446389162884
C         4.76214294189065    6.43963415354105    4.65222592239396
C         5.77825465014493    6.59736866539775    3.72581660868740
C         6.63463148928611    5.53976742197904    3.46721023098925
C         6.46249909185106    4.33349423649613    4.12133140276597
C         7.04044878645507    1.94310830867864    6.20225527318292
C         7.55802626736756    0.72863394424303    5.77498350956960
C         8.88494478720136    0.39544248082295    5.98226746092182
C         9.72755838990464    1.28495414971610    6.62460214570934
C         9.23252820942283    2.50677182806871    7.05052531154302
C         7.90467871032580    2.82765153046764    6.83923760223025
C         4.61476712743768    2.92917873239766    7.68620374824209
C         2.54060164961815   -2.26807162269524    4.99686830249821
C         1.26326292720460   -1.74663603652628    5.17178180466178
C         0.26491891631756   -2.50746838416523    5.75058290081919
C         0.53559599558666   -3.79840818513112    6.17159135780174
C         1.80845717348059   -4.32127615497867    6.01290258516239
C         3.29405094987058   -3.55397103302842    0.84065931858935
C         3.41810772350103   -3.13925671711707    2.15356210571561
C         1.74333481913628    3.75642568103044    4.27361674591647
C         1.65628451501833    4.96397051696416    3.59198984243004
C         1.24335015788319    6.10534064870858    4.25721413565513
C         0.90638031235639    6.05269992406697    5.59886131153356
C         0.98052921522727    4.84862060723288    6.28147517501782
C         1.40042790665040    3.70922067325031    5.62266743144847
O         5.98979064778665    1.32615008775991    2.70211661862812
O         2.48659452639937    0.41432186771408    7.13030659064815
H         4.68625918806353    2.08186421037258    8.36012944998799
H         3.58417047944930    3.26734180150899    7.68883459745233
H         5.22814047829334    3.72788952256407    8.08955065091194
H         4.34000128092071    3.86694617952633    2.69103392182284
H         5.23725353476719    4.59649577498709    0.52113914745600
H         4.16352967416630    3.84066853753280   -1.57727422868818
H         2.18248961472664    2.37467223412122   -1.48038718089946
H         1.27551115402287    1.65570489032285    0.68211790902049
H        -0.59696711939000    3.12904864663109    3.83757086225307
H        -2.74193742072860    2.05115082372571    3.34606004172358
H        -2.80857682602819   -0.21584633760418    2.37687865981563
H        -0.69414349842782   -1.41040933217753    1.90268145481794
H         1.45812268643394   -0.34061885066319    2.41259784762367
H         3.80770847231239    5.12368356696173    6.02967781183395
H         4.09396064031351    7.26169036499721    4.86917005227663
H         5.90712930301188    7.54038380600801    3.21327762376532
H         7.43900867974320    5.65680059592100    2.75395318125529
H         7.13779433231533    3.51556207836917    3.91423049429856
H         6.91094190270684    0.02909157650678    5.26591649472671
H         9.25915554669386   -0.55941071844236    5.63899787258181
H        10.76549921454038    1.03134370594732    6.78902267730191
H         9.88682014545098    3.21073462190392    7.54617134472078
H         7.53115156000049    3.78799741314809    7.16417483565779
H         1.05401767149556   -0.73352690407636    4.85748653433177
H        -0.72248259858695   -2.08828714299178    5.87793773602000
H        -0.24011109888683   -4.39414422244983    6.62959542596876
H         2.02624893285310   -5.32514778349051    6.34816399565558
H         3.80034354530290   -3.98108569837581    5.32321737977705
H         6.12271707756218   -2.30855553503919    2.69548333991549
H         8.23434122939853   -3.29210370972415    3.48715140627778
H         8.64772219633597   -3.56581846930933    5.90326599501408
H         6.95520427780326   -2.81834234777593    7.53617532165310
H         4.84113895704641   -1.81510454954390    6.74576111995882
H         3.82350209358972    0.17540166510095    1.61788016521014
H         3.61310232320183   -0.56680259504483   -0.70923481931847
H         3.26505919200082   -2.96351186994950   -1.21752327833264
H         3.14036277378409   -4.60090713347087    0.62263337482714
H         3.35873740606244   -3.86173974788179    2.95448105186212
H         1.90918085047444    5.01821570047131    2.54339033646950
H         1.18172219945074    7.04121330491248    3.72098398585991
H         0.58663153279667    6.94710144045384    6.11311346457295
H         0.71633454502684    4.80153738491120    7.32817816724182
H         1.46538113533404    2.76760224747759    6.15032505054054

