97
CSD_code = GEHDUS | q = 1 | S = 0 | Stoichiometry = C48H45CuN3(1+) | MND = 3
Cu        0.00001295404354    0.00006297982260   32.29640191879631
N        -0.31234849400317   -1.92492615226335   32.26400498273312
C         0.38538995450793   -3.07052390707282   35.61608948637340
C         0.33496869489418   -2.27177576247126   34.52719674565270
C        -0.20733601755582   -2.70414480404826   33.28693136755722
C         0.88437739512772   -2.72387556367762   36.92438507740291
C         1.44976698557294   -1.47763603879807   37.22224248127780
C         1.88000581261303   -1.18842546563016   38.50058135690406
C         1.76301976868793   -2.13244177428433   39.50997200051853
C         1.21590281252652   -3.37571592303028   39.23119464104371
C         0.78088473747675   -3.66852071747966   37.95433275906915
C        -0.86769140142229   -2.40649879206832   31.07144249087711
C        -0.27763537913649   -2.04370556104320   29.86179651395753
C        -0.80935351487557   -2.48968381743361   28.66825819093576
C        -1.95018292000370   -3.28483318660133   28.64376898080774
C        -2.54145920504845   -3.62987562596575   29.85595313657591
C        -2.00848908008460   -3.20851087017633   31.05687713842584
C        -2.54676354776602   -3.75161870104665   27.35517362942145
H        -0.00960937196051   -4.07574932190588   35.52560991148647
H         0.71748266270877   -1.25954484006779   34.55072141585707
H        -0.52183759786880   -3.74483103406787   33.21157761776073
H         1.55760898811740   -0.73236777430715   36.45009440190480
H         2.30970995398953   -0.22141537723623   38.71373044043698
H         2.10154516778985   -1.90116124828012   40.50809719765310
H         1.12818809811704   -4.11540714342860   40.01242011223032
H         0.35025158651181   -4.63653642981912   37.74226614051548
H         0.61503709573640   -1.43432105470573   29.87240735154854
H        -0.33061728735164   -2.21185916671301   27.74090422977727
H        -3.43426355136744   -4.23745907223236   29.85543510032769
H        -2.49727577852798   -3.46387287440326   31.98594985415258
H        -1.91459596213103   -3.48838147848012   26.51170216141913
H        -3.52708760526982   -3.29891271109737   27.20875254676076
H        -2.68279117801795   -4.83155487946169   27.36834155237040
N         1.82339437703694    0.69177622191248   32.26378571193690
C         2.44577894633305    1.17214493589743   33.28675301127927
C         1.79998594628013    1.42650726771832   34.52672756728060
C         2.46646892756886    1.86952851861106   35.61563574892763
C         1.91680135230661    2.12766203469576   36.92408236581187
C         0.55478625465319    1.99431302141644   37.22183686427724
C         0.08910335628172    2.22250304146515   38.50011593199674
C         0.96506682854286    2.59337121999715   39.50951948218102
C         2.31540300240974    2.74086037801006   39.23088546153446
C         2.78659002538704    2.51030938875413   37.95409298827978
H         3.84021261102256    2.62156515038584   37.74203863420475
H         2.99984961438251    3.03452599869552   40.01219683071174
H         0.59555489009261    2.77031761159276   40.50776985967391
H        -0.96316756397497    2.11083872706609   38.71328384954994
H        -0.14454200845135    1.71520889445183   36.44962603494973
H         3.53467694140290    2.02918596422480   35.52544592315495
H         0.73219546400182    1.25117852740505   34.55036347465801
H         3.50415059690955    1.42064472881884   33.21120141596862
C         2.51807546936367    0.45187774460489   31.07114624499917
C         1.90882498722159    0.78150366160025   29.86150292991465
C         2.56078432722061    0.54375536249180   28.66793117530755
C         3.81980368811944   -0.04670864315329   28.64342770861002
C         4.41431856343318   -0.38615537734615   29.85560737992348
C         3.78298832579491   -0.13517318968808   31.05653929156104
H         4.24847292738143   -0.43094160615437   31.98559536511308
H         5.38688498596596   -0.85559641745907   29.85508153322310
C         4.52241016459591   -0.32989081114676   27.35485475626849
H         3.97837676367236    0.08600004782704   26.51139544582296
H         4.62054371635464   -1.40522341216095   27.20843109995171
H         5.52567087975772    0.09227606492159   27.36802060582073
H         2.08088775211239    0.81958633827178   27.74057714407214
H         0.93467139053835    1.24974582002896   29.87212436779129
N        -1.51077467286535    1.23324893859690   32.26408816067507
C        -2.23821676686444    1.53181464741602   33.28694233670549
C        -2.13572995253206    0.84527120650836   34.52688878878394
C        -2.85278832625042    1.20083814467076   35.61574741991146
C        -2.80128368067308    0.59598953932228   36.92428646106852
C        -2.00481930422217   -0.51687555719071   37.22202961571583
C        -1.96959366086700   -1.03424491932330   38.50031107217783
C        -2.72845525392261   -0.46082347880232   39.50981317684967
C        -3.53128965614013    0.63490060729423   39.23119840856829
C        -3.56731384515633    1.15813683792394   37.95437479854249
H        -4.19066799220010    2.01482017256567   37.74226788150792
H        -4.12834929247386    1.08040318920694   40.01235330435497
H        -2.69726089607055   -0.86955655940143   40.50796804933734
H        -1.34666487827375   -1.88963321804341   38.71350146313820
H        -1.41322927998652   -0.98278873837054   36.44987947387952
H        -3.52431406708551    2.04680594327477   35.52588245575775
H        -1.44918991459757    0.00887269592933   34.55083887977163
H        -2.98229474511723    2.32444533365814   33.21151646189886
C        -1.65030324040760    1.95486511652938   31.07147774372789
C        -1.63097312496790    1.26243465916629   29.86183792098768
C        -1.75118115871661    1.94589456853679   28.66826347432873
C        -1.86943788354995    3.33146166852399   28.64374287725461
C        -1.87275942944126    4.01606254092430   29.85591602770895
C        -1.77450923122725    3.34383203513724   31.05686934405321
H        -1.75106200860182    3.89485047277174   31.98591575488602
H        -1.95248972405380    5.09305138960098   29.85536771801128
C        -1.97549786654002    4.08150494691333   27.35514294389100
H        -2.06363337116601    3.40239944170710   26.51169236657596
H        -1.09330154551530    4.70416376473114   27.20869333729607
H        -2.84274579675975    4.73926204990275   27.36827054880021
H        -1.75013650878760    1.39235360779830   27.74092684492173
H        -1.54957120488044    0.18466582819146   29.87248575177104

