56
CSD_code = GEHJOS | q = 0 | S = 0 | Stoichiometry = C21H31NbO3 | MND = 12
Nb        2.70567974655668    1.31051850235821    2.87870205228265
O         1.81612094876059    1.05588722854923    4.65465260467084
O         3.99957253565796    0.21086289517437    2.92459264906814
O         1.71294868855320    0.35216698296643    6.74803199679900
C         2.14581413520129    0.28414285335440    5.62440268402612
C         1.72581088835818   -0.26480318342727    1.22968879841649
C         0.74931533996405   -0.13538030560575    2.23978940002167
C         0.23543139009497    1.20125144320807    2.19739951264016
C         0.91596304481280    1.90897107145578    1.19437592248506
C         1.91295557360282    1.02578577570693    0.63363749765081
C         2.46242537676838   -1.51481955730153    0.84527333493148
H         2.63199123831239   -1.54374125354467   -0.23011645543860
H         1.89195056168532   -2.39629875243530    1.13044649351440
H         3.43177242493798   -1.54534168496248    1.35332982309247
C         0.21724575383114   -1.23724172812066    3.10526450221529
H        -0.11391724350635   -0.84667000050930    4.06776987168416
H         0.98492609813783   -1.98960588025571    3.28631753994762
H        -0.63759153226925   -1.71994442324626    2.62512219936731
C        -0.91125815686096    1.69534547380593    3.02638580312563
H        -0.69951345759679    1.57403617132918    4.09136705744803
H        -1.81485969515714    1.12577900305367    2.80020916665638
H        -1.11010142291618    2.74767015559990    2.83135233354927
C         0.46642113990297    3.21956786174223    0.61511501456358
H         1.14148944319035    3.55673787676911   -0.16673647263945
H         0.39275177718398    3.99887075333202    1.37204017504798
H        -0.52328780050678    3.09223961204338    0.16974959825323
C         2.67607712315213    1.23879806051451   -0.64620758149672
H         2.82009133807732    2.29729957242317   -0.85458935400567
H         2.12761879885218    0.80339735050769   -1.48534914539051
H         3.65422657347042    0.75989157632511   -0.58884227067988
C         2.55478544193583    4.60291579130507    3.22278482933145
C         2.92047905715565    3.85994582514578    4.36654139042324
C         3.95739086680251    2.94932362454643    4.01592893490361
C         4.20368788356293    3.11244180612507    2.58895634252560
C         3.34521544902384    4.18901517156155    2.14887527514605
C         1.52788707400085    5.69558741009222    3.22310534370213
H         1.38280515681062    6.10190798504940    2.22507314471907
H         1.85069750551138    6.51113413132453    3.87135735187454
H         0.56767075180416    5.33676317175087    3.59659960124366
C         2.35857662575061    4.01115298251538    5.74033552023352
H         1.56670797037220    4.75536837847542    5.76262923074315
H         3.14033459355079    4.31119372202580    6.43961251804786
H         1.95180748774897    3.05999798045067    6.09206292371105
C         4.94533124264630    2.37676327364133    5.00609153618173
H         5.45847291261453    1.51195966991350    4.58215627592661
H         4.43664707950576    2.06079658305422    5.91770692573175
H         5.68655142668858    3.13576577746942    5.26834894106329
C         5.53852730244260    2.81535443769732    1.94244819795304
H         5.44862012741217    2.76948341577526    0.85805187003195
H         5.92463782751132    1.85906864095670    2.29526435136113
H         6.25435197565773    3.60104246467319    2.19476175247055
C         3.47659412819393    4.85685222016979    0.81699074856954
H         2.57503805046125    5.39679249592629    0.53770845170156
H         3.71862042819256    4.14050982157164    0.03437420668464
H         4.29558478682525    5.57864711713477    0.86309194556187
H         2.90110621761456   -0.50435734912395    5.33606763837486

