109
CSD_code = GEHNOW | q = 1 | S = 0 | Stoichiometry = C55H49P4Ru(1+) | MND = 8
Ru        4.98451577317401    2.78105137789836    3.55378310601567
P         2.73251175549424    2.45183757205576    3.25332595811925
P         3.87448058848437    4.64254123469705    4.44628473447840
P         5.11822437483653    1.67277773335185    5.54943078563779
P         3.69028783209461    0.66286012476764    8.12378536193332
C         7.15584136222001    2.34705386353930    3.05642662885988
C         6.83674954962057    3.61783880164483    2.53837002076349
C         5.79469121135141    3.45700077030919    1.57508426819738
C         5.50633024318705    2.07267485998374    1.48428509004301
C         6.31304594445054    1.38438068590086    2.41854501387397
C         2.16400774982624    3.91545634601347    4.24874098413240
C         3.65224505262081    1.81507075232666    6.64025900188318
C         1.69841077839167    1.03982492889641    3.73357124441292
C         2.20614187720164   -0.22967224512081    3.47192431696905
C         1.45509886380703   -1.35096425076489    3.77349793625100
C         0.20165655331244   -1.20615969280231    4.34620583370606
C        -0.30802423747683    0.05717054011349    4.60174734890777
C         0.43271308796760    1.18335288448874    4.29270515267860
C         2.13672019052362    2.82174986360064    1.57826114997899
C         2.37874522720996    4.09297074999258    1.06192206593564
C         1.99501017233745    4.40228653616695   -0.22807435936648
C         1.38045229488818    3.44128354800914   -1.01692006363916
C         1.15097829337797    2.17245662380934   -0.51140145586461
C         1.52929505572393    1.85629885337952    0.78210195938691
C         3.75086801393916    6.23621075164144    3.56484251764936
C         2.65964552685621    7.06200830263472    3.82767197714017
C         2.55582533876854    8.28706109228371    3.19843473602012
C         3.54254781661122    8.70393844290259    2.31716527767385
C         4.64070293150315    7.89714463054876    2.07394274776108
C         4.74702836025330    6.66641615554017    2.69887367068604
C         3.94732178473397    5.36345700149260    6.12740042364030
C         2.95266195246588    5.26856663152053    7.09370766577817
C         3.11329250186654    5.89914825234393    8.31563996765345
C         4.26022961440396    6.62673571946062    8.58215544466827
C         5.25263098093978    6.73169544340383    7.62049133648136
C         5.09411351385383    6.10687680247592    6.39957475867074
C         6.46744983478083    2.19448529914007    6.64613465193339
C         7.06002345305461    3.43292369135416    6.43105754415966
C         8.03747788093683    3.89726359098439    7.29198963929138
C         8.43097895463932    3.11965711064521    8.36876858718307
C         7.85359027824179    1.87635083010287    8.57811714611523
C         6.87543946198302    1.40813589839182    7.72104447612176
C         5.39848183244188   -0.11725411088954    5.44236018502589
C         4.36744455203724   -1.03793276275153    5.59281956063702
C         4.62751842852456   -2.39217033481192    5.47696243954222
C         5.91017197317909   -2.83773453489989    5.20526958309183
C         6.94135177305412   -1.92393172332296    5.05227497150848
C         6.68765587843141   -0.57054221382154    5.16800694870491
C         3.70348675690968    1.87956468929893    9.49022830622795
C         3.01686416304112    1.54915210258563   10.65760167446757
C         3.08518876695667    2.37002264546069   11.76652269527367
C         3.86289549913662    3.51659213467821   11.73462912957687
C         4.57010856814447    3.83500043789816   10.58830462456050
C         4.49515101553910    3.02288248764013    9.47089459613474
C         1.89521571674702    0.27487966940283    8.08790256756566
C         1.50592806386722   -1.05420585809616    7.98358203547505
C         0.16315843593175   -1.38548760085438    7.92423423626184
C        -0.79641856931158   -0.38943690269540    7.96988196891559
C        -0.41322057281664    0.93913137722770    8.07555426158245
C         0.92592066057889    1.27278279464374    8.13320395619084
H         7.99059931199200    2.12593565747148    3.70912161118653
H         7.39475872855193    4.52542665072929    2.72997232266958
H         5.45208685546274    4.20880354520547    0.87698103832264
H         4.83955831048650    1.61630945501562    0.76360980565227
H         6.41865587555990    0.31035655223314    2.49506935816805
H         1.44510046338253    4.56038301702699    3.73664847010685
H         1.75778175887332    3.57812362367034    5.20567980693499
H         3.58403278151316    2.86240308060258    6.95268814604362
H         2.77789892181555    1.56128513166382    6.02731771321009
H         3.19507754780747   -0.31995329872608    3.03744447495476
H         1.84820465863677   -2.33450370017990    3.56553294997932
H        -0.38366449497272   -2.07927669052900    4.58938325682523
H        -1.28853224505897    0.16504203159321    5.03900827671036
H         0.02554851190479    2.16771745791529    4.47565290429197
H         2.87078980223180    4.83665042245542    1.67799586481925
H         2.17731349254388    5.39172506024728   -0.62044332115628
H         1.08385615966425    3.68175008870650   -2.02616759161633
H         0.67598967371682    1.42328586192089   -1.12650408688107
H         1.34871617188326    0.86512363210075    1.17353323309929
H         1.90180069829706    6.74569140510048    4.53174293411412
H         1.70673170101962    8.92277765921447    3.39874245489333
H         3.45745078810507    9.66175821429172    1.82766359873606
H         5.41631889458837    8.22624624050287    1.39882222110981
H         5.60311456454699    6.03452449849876    2.51508754737503
H         2.03984109787715    4.72211525823381    6.90265365368988
H         2.33631312111823    5.82301851200295    9.06136353259189
H         4.37439324704847    7.12148495421265    9.53421389412168
H         6.14307241934523    7.30804775298337    7.82056762653346
H         5.85092753856762    6.20687971726019    5.63161499034899
H         6.74154478943338    4.02175745655723    5.57702717011697
H         8.49360223589863    4.86151396330948    7.12361629121971
H         9.19330930719665    3.47906366489309    9.04299197374476
H         8.16663800221590    1.26946779892818    9.41385856608569
H         6.42900981181645    0.43618957059010    7.88059769938268
H         3.36068503981636   -0.70267559600105    5.79730901596902
H         3.82385960458941   -3.10234137414751    5.60327425127248
H         6.10909108277055   -3.89482710746371    5.11704754430964
H         7.94402135658667   -2.26806619485074    4.84700266212938
H         7.49418556612344    0.14396656637974    5.06622736931017
H         2.42253981656284    0.64590437904337   10.68813872933243
H         2.53881447360362    2.11067102523670   12.66089886384031
H         3.92456610068554    4.15313929079912   12.60420142090591
H         5.19312014747593    4.71675059371954   10.56041169555759
H         5.06279890483206    3.28691629268553    8.58991463924619
H         2.26279421174565   -1.82623186959910    7.96126000501935
H        -0.13407485841310   -2.42097962663030    7.85188994094327
H        -1.84453868325434   -0.64615572060485    7.93356159560804
H        -1.16387722863949    1.71493011354605    8.12153560436341
H         1.22651322539637    2.30724457639469    8.23682988216376

