29
CSD_code = GEHQOC | q = 0 | S = 0 | Stoichiometry = C12H12Cl2N2Pt | MND = 4
Pt        3.91393980996575   11.55391483041853    7.25614060737559
Cl        3.62268705784508    9.41005856780171    7.84536791021580
Cl        5.59921880699613   10.99266587222246    5.88803842597435
N         4.12828669970113   13.50060994401012    6.75570687320185
N         2.39838890806571   12.11495403673525    8.47052748359506
C         4.04290372295186   14.42830507432156    7.72069682439174
C         4.07350410452139   15.77984255631533    7.41656554314863
H         4.00177683286987   16.51807489741553    8.19748124802084
C         4.21537412890633   16.17915846948551    6.09611982169138
H         4.24959124209435   17.22818555617766    5.84585852069793
C         4.31912763350104   15.20801567535618    5.11279306911988
H         4.44038665365785   15.47268456355102    4.07521131309042
C         4.26732831432588   13.87815890150020    5.48496505424699
H         4.35969768259425   13.08120980829970    4.75947640430244
C         2.54154730842782   13.22366780001726    9.21175364567479
C         1.49539740694003   13.70903600289631    9.97998452553891
H         1.61850478289749   14.60101445835640   10.57095715733460
C         0.28820931908928   13.02667867240003    9.99811756317880
H        -0.53197939188156   13.38840403893317   10.59862284224296
C         0.16181661036282   11.87400191640364    9.23894351426028
H        -0.75462521835627   11.30712264486061    9.23030460786103
C         1.24129672256519   11.45353312954649    8.48543497584142
H         1.20071109904275   10.55234636858178    7.88853062178235
C         3.90243457186578   13.88533548944547    9.12861462719864
H         4.64324026096031   13.06879964331791    9.21471918995950
C         4.18021457372602   14.90118050129655   10.22861718450117
H         3.48363304322703   15.73529354857249   10.20213206290641
H         5.18968327591294   15.29013409537228   10.11962136973183
H         4.10430403722363   14.41781293638924   11.19959701291430

