87
CSD_code = GEHWEV | q = 0 | S = 0 | Stoichiometry = C33H48FeO3P2 | MND = 8
Fe       15.31257441365355    1.22385220372190    1.26841429266981
P        15.53571593445384    1.66371265361331    3.46538930197759
P        16.59898102990414    3.26170455387344    4.34537290375957
O        17.21464627559216   -0.94502348703817    1.13699446320676
O        13.51662928055662   -0.99860333127692    1.68979246930144
O        13.91169578458320    1.96444768780201    3.77574651478987
C        16.52726376487946   -0.02752037540976    1.21530146571622
C        14.20813943700039   -0.09049406343424    1.57023234660633
C        13.32887793227013    0.92167928837024    4.43796695532301
C        14.09751308405614   -0.08734073857415    4.81106020948112
C        15.54658031308773    0.09325443705686    4.47548291879929
C        18.86925360432046    1.59944258303506    4.86677779548929
C        19.36949261224350    0.47733075420107    5.51884803720031
C        18.83968549945478    0.00763089976780    6.70656996085157
C        17.88812423432380    0.80406842669129    7.32835885712218
C        17.33036532575171    1.91868143222725    6.72025222569095
C        17.71784978603072    2.21620554056752    5.39315791291836
C        19.65113006699551    2.12935217869059    3.66158128246885
C        18.99608594589227    1.68955388250178    2.35022016907781
C        21.09916025178184    1.60809346058246    3.64131452581192
C        19.76028863571447    3.65741821570005    3.73808445695036
C        19.29279470672121   -1.28218551385947    7.37163790243465
C        18.06683873450101   -2.18014853919784    7.59336179609909
C        20.30204657527628   -2.06058078161808    6.52305781470132
C        19.94867176039660   -0.95557385315770    8.72043366169811
C        16.38335814184436    2.79738534513170    7.54416859684898
C        16.49626672336375    2.50977482812955    9.05082108626441
C        16.77186133071807    4.27088923420648    7.36449996729107
C        14.91805290853004    2.57498215407816    7.15257257283676
C        15.95354372712556    2.31472398458706   -0.60879037318890
C        15.92974060633415    3.29279861234354    0.42692942125775
C        14.59248531910268    3.37544332349293    0.92608918966361
C        13.79397788077215    2.43996011650344    0.21143194279543
C        14.63380208136833    1.79152634730618   -0.75505578828667
C        17.10898181981083    2.02971798911418   -1.51652066182922
C        17.01146749216935    4.24568350624202    0.80257872970710
C        14.12061587807423    4.40885160542347    1.89175806356168
C        12.30194916964129    2.33861947149367    0.28270132296962
C        14.16578016831478    0.89489158761510   -1.85781076999588
H        12.26816070518796    1.03715209650095    4.59479814589225
H        13.74802057147800   -0.95193299168730    5.34520098592857
H        16.15722129627802    0.20270318815071    5.37826267642022
H        15.95373456978837   -0.73216174834537    3.88484201987555
H        20.18850225907303   -0.05480991694941    5.07383254884906
H        17.55314193006446    0.52071115922345    8.31026955959885
H        17.96698660712346    2.03940266130898    2.28785533492192
H        18.99153153581341    0.60399905609438    2.28720856860143
H        19.55254095254525    2.08166585527676    1.50120088941209
H        21.58417442966146    1.75879615660534    4.60311915473462
H        21.66035807443399    2.16088271462872    2.89012095188946
H        21.15293754387787    0.55564796778918    3.37322490867479
H        18.78327357735184    4.12971002619697    3.75051613540041
H        20.31329126594201    4.03634599136047    2.88076140921419
H        20.28799286101907    3.94321875369505    4.64578647237092
H        17.33209825279858   -1.69870092578395    8.23311765975682
H        18.36525651005491   -3.11522012830813    8.06315500723507
H        17.59207567459611   -2.40856700523966    6.64083469295491
H        21.22399855587764   -1.49819558126781    6.39503569636228
H        19.88895341473224   -2.29596793620860    5.54473861917569
H        20.54872831056380   -2.99714324690611    7.01968886996606
H        20.30251055922402   -1.86747365325807    9.19741904208156
H        19.24808978076247   -0.46905313475068    9.39363255311721
H        20.79713608340192   -0.29034294699706    8.57339585688127
H        16.06347667211848    1.54724761985449    9.31505426608025
H        15.94348368544412    3.27249766419935    9.59622767249473
H        17.53180474731022    2.54316311801768    9.38271420056083
H        16.67942810309902    4.58421683222935    6.32717340064737
H        17.80275510009887    4.42463671824480    7.67812916252038
H        16.12479383241937    4.90518793473398    7.96711633741584
H        14.74262626939133    2.87318273705563    6.12256930026448
H        14.26879932688133    3.16741900931166    7.79441957306385
H        14.64902367613277    1.52543093734566    7.26286521887762
H        18.05378818602527    2.14538295532782   -0.99202157449089
H        17.09569482118133    2.72285503391596   -2.35960654750214
H        17.05774167752336    1.01706302949055   -1.90816237637128
H        17.13324862698321    4.27131501558322    1.88836515955294
H        16.74624714118108    5.25250165759118    0.47743763956808
H        17.95991984109342    3.97178728115125    0.35020547428986
H        13.14386888144934    4.15793806658215    2.29425909099792
H        14.05289662416997    5.37585258821901    1.38951024690713
H        14.82108821275322    4.50683778171972    2.72073480344338
H        11.95912898474552    1.35574175536623   -0.03115864086732
H        11.84751781652683    3.08471344233416   -0.37152813531632
H        11.95284846491180    2.51510579348889    1.29709231036670
H        13.89512286513013    1.49057305368934   -2.73163409692853
H        13.29287567136270    0.32323666720479   -1.55278850787894
H        14.94641721356672    0.19714127548796   -2.15077527695276

