69
CSD_code = GEHWOI | q = 0 | S = 0 | Stoichiometry = C26H38N2P2Pt | MND = 4
Pt       -0.00030106027272    5.61179110646070   -0.00012968118483
P         1.73563067234589    4.99161486287452    1.33381459654114
C        -1.83793152782189    6.38203327272030    2.51885558836711
C        -2.62578789343199    6.74158131240892    3.63380697106208
C        -1.15348164230480    6.06738098932746    1.56746483325740
C         3.04277789876959    6.27939869577333    1.20329769143041
H         3.74976758264586    6.21528920127785    2.03400260107041
H         3.58242609512639    6.09345779569727    0.27066286421129
C         1.40935612239140    4.84542613402949    3.14471779559727
H         1.11656269163155    5.84799714279281    3.47071391386255
H         0.52224028222531    4.21506323417412    3.25338618938816
C         2.61929757121948    3.44365571468365    0.88466458307155
H         3.03401272768150    3.60707257736768   -0.11351360063144
H         3.44245692226126    3.25578732578418    1.57782838073920
C         1.63060079228444    2.28504040698930    0.84849136735874
H         0.80777971901789    2.53712053214311    0.17668764801328
H         1.21887748506687    2.08906232366391    1.83696050669071
H         2.10581315188747    1.37541098041021    0.48645436222770
C         2.54826555203579    4.31278312482395    4.00336237600107
H         3.46696396270564    4.87265570768083    3.84045259587038
H         2.74161001991475    3.26315171605958    3.79530719361511
H         2.28366346085693    4.40144975324801    5.05536374653200
C         2.37063976014873    7.64743460223916    1.14744692796527
H         1.62097044507520    7.64393240018916    0.34543283593067
H         3.09337023160459    8.43519523452233    0.94369894663042
H         1.86690811480332    7.87244702732119    2.08618491667488
C        -3.22502172823857    8.00068315428155    3.73646351814748
H        -3.08919612382798    8.72878322667544    2.94735269453533
C        -2.83628774574678    5.84625213364294    4.68963622731787
H        -2.39683877640170    4.85613262895194    4.66090136530225
C        -4.11688963256420    7.32312788938354    5.83858214936455
H        -4.69796108777398    7.50769996524526    6.73295797144029
N        -3.55665360659060    6.12634123488411    5.75683415558742
C        -3.98138668283925    8.29329782086110    4.85536333436837
H        -4.45804615109792    9.25630554356044    4.96592641219989
P        -1.73536968138246    6.23411323368982   -1.33391720774414
C         1.83747651333548    4.84051062506191   -2.51872067565915
C         2.62525263025361    4.48057791151560   -3.63361120782878
C         1.15304435201730    5.15588993698474   -1.56755027986265
C        -3.04294523628569    4.94655140370416   -1.20556847681028
H        -3.74904652663273    5.01145355467445   -2.03697600937139
H        -3.58350843148705    5.13193121251312   -0.27335025331474
C        -1.40844568309900    6.38252809982751   -3.14452396497241
H        -1.11685489072733    5.38005414370800   -3.47190407289847
H        -0.52053013546559    7.01195684910041   -3.25209142710866
C        -2.61901248353496    7.78165674329344   -0.88322959881687
H        -3.03327452407596    7.61738374272339    0.11500738670941
H        -3.44250254666542    7.96985639119200   -1.57592567705033
C        -1.63060147341833    8.94050464785902   -0.84657274322003
H        -0.80750067397176    8.68822385643009   -0.17519269796949
H        -1.21924551155117    9.13730290819590   -1.83503647852866
H        -2.10597563814427    9.84974112608038   -0.48375932015542
C        -2.54657443225714    6.91785486731145   -4.00255043805593
H        -3.46610077236449    6.35914599314407   -3.84028293262095
H        -2.73836680244795    7.96752142086895   -3.79322801818478
H        -2.28211581514192    6.83005728488102   -5.05465649132485
C        -2.37120351803036    3.57830813836570   -1.15009815639473
H        -1.62242177645568    3.58092211249609   -0.34726633751178
H        -3.09437703245214    2.79057132926691   -0.94781659980806
H        -1.86649762093228    3.35395896599834   -2.08847659590611
C         3.22440334653751    3.22142990354861   -3.73614200272815
H         3.08861322614533    2.49342724522505   -2.94693374684929
C         2.83573612585210    5.37576140692994   -4.68957700528676
H         2.39630452353309    6.36588976807158   -4.66090731756489
C         4.11619453012284    3.89868914040716   -5.83840519277984
H         4.69723205010063    3.71399109464672   -6.73277836422144
N         3.55603001393946    5.09552436796883   -5.75677377837955
C         3.98068179708050    2.92864708812446   -4.85506964914965
H         4.45729449487345    1.96560671401020   -4.96554864719678

