51
CSD_code = GEHYOH | q = 0 | S = 0 | Stoichiometry = C20H28P2Zr | MND = 12
Zr        2.85753668189155    2.13118115203334    1.93206601659979
P         3.65531426256862    5.05312060699233    2.05434876340292
P         1.66775329061501    4.85888771617186    1.35132576613559
C         2.32634018956512    4.01547300409122    2.91741857372943
C         1.82339054811674    4.44507216289498    4.29553998941990
C         3.00685285499888    4.61372054465509    5.25929928215332
C         1.04348555723059    5.76246071861142    4.24812357206251
C         0.91046737874468    3.33084000946986    4.83857459598500
C         3.13508927218375    3.88769865767090    0.65098547704529
C         3.58935945950419    4.15571935173783   -0.78368381091380
C         4.17034109809925    5.56192657095917   -0.95974565889755
C         4.66036684304315    3.11158105993609   -1.14746310542525
C         2.40688329383284    3.99297049844747   -1.74973298941842
C         1.81390692645199   -0.09112673055673    1.20995789307688
C         1.65341851438164    0.80038961856810    0.13130376237491
C         0.75712612710614    1.81379237590201    0.54013881355197
C         0.40956306005993    1.57407474704548    1.88429940743978
C         1.07255206812785    0.39664472746616    2.30363536250094
C         5.35803137192711    1.93184045257138    2.04306453210449
C         4.96453688497813    2.33125843868164    3.33560260336992
C         4.21180718204202    1.28152957162630    3.90912036459965
C         4.18890461254189    0.21678190888453    2.98726564044060
C         4.86890061422674    0.62269554120762    1.82257806871336
H         3.54060051950293    3.67318163633420    5.38201446200204
H         3.69780116190656    5.36387510828856    4.87641860826383
H         2.65680581071110    4.93994683321012    6.23757716513578
H         1.67763579378325    6.55387195696173    3.85095693477065
H         0.17076473217056    5.66624174248675    3.60308298414640
H         0.70929119807234    6.05071945217885    5.24378121020223
H        -0.02989381580361    3.31412189667085    4.28966548343403
H         1.40202101344997    2.35217193257712    4.74108540946002
H         0.68229250402198    3.50214767337434    5.88964227916654
H         3.42226429457175    6.30740967047625   -0.69349355941715
H         5.03706618630778    5.70029928368538   -0.31425593637442
H         4.47592296481859    5.72827367169771   -1.99176543734782
H         5.58563683549525    3.32003231867418   -0.61239048628619
H         4.31333306507675    2.10125565513022   -0.88719601478283
H         4.87597270313521    3.14100225801510   -2.21459127657794
H         2.01753943955579    2.97725140597444   -1.71439699345290
H         1.60890857282909    4.68576067883981   -1.48503299777636
H         2.71859895805149    4.20573376604375   -2.77128505811698
H         2.32730208360588   -1.04267587957228    1.16192969585135
H         1.99930711835876    0.62621394297226   -0.88214604438581
H         0.31154989108271    2.57135156660359   -0.09100517969302
H        -0.36295881365347    2.10215415186241    2.42799446414963
H         0.90702230725751   -0.12216110416099    3.24214528130118
H         6.05675777962494    2.46868853135377    1.41472988950798
H         5.29411393709462    3.23330812988266    3.83403265297240
H         3.88110306433721    1.22436558894768    4.94083360952091
H         3.81113167353752   -0.77681558194923    3.19066457186109
H         5.11578092885664   -0.01045899162453    0.97668136241681

