69
CSD_code = GEJBUS | q = 0 | S = 0 | Stoichiometry = C22H40MoO2S4 | MND = 6
Mo        2.45729026866982    6.52426552722504   10.65807827944724
S         1.86473675031137    4.23032830852212   10.41876498483059
S         4.44975028528815    5.86973799883524   11.78965945282206
S         3.37052877741267    8.71446318239402   10.42906327174860
S         0.78354703062609    7.07855506125173    9.05715868701451
C         2.09980768999289    3.42621008495112   12.01098591768704
C         3.54556331744878    3.29271147248938   12.46921882606144
C         4.01383644774159    4.63199332820214   13.02137257681649
C         4.78862052463790    7.10256867377447   13.05637311431415
C         5.21167080562119    8.47118287782042   12.54098603090112
C         3.97927460385668    9.21596864739715   12.04662597521436
C         2.02160239366489    9.90455099085188   10.49795348446595
C         1.04876315240117    9.86428823403938    9.32771977699149
C         0.10633277224742    8.68232448698843    9.51007171146060
C        -0.73192647857762    6.23125450505585    9.53062181587386
C        -0.70568428439704    4.71573587071088    9.38857856517977
C         0.07391277819785    4.12302475268242   10.55439351629867
C         4.44840010577466    2.80990760346236   11.33541022540921
C         3.58107284961486    2.27474962145259   13.61700241461602
C         5.79146659858983    9.25830335720479   13.72390938530210
C         6.26976050540563    8.35270887586182   11.44522914272910
C         0.20713012347614   11.14662531039940    9.37441400134416
C         1.78603449062627    9.79037195176652    7.99178710296019
C        -0.11180766723845    4.29150249001488    8.04628247058462
C        -2.15157957201735    4.21098625615849    9.48633632949817
C         3.50063857055255    6.17415298322925    9.09927812300848
C         1.42650539837170    6.86603551573974   12.19038423348058
O         4.08926592429156    5.96673128170263    8.19871460788501
O         0.82390515173593    7.06476622995241   13.08669044087951
H         1.65598887041887    2.43450776036398   11.89514278163932
H         1.52670377713103    3.98954075215220   12.74679522537251
H         3.23946883149866    5.06327569652106   13.65516923173599
H         4.92166647570581    4.49037754639319   13.61273938156158
H         5.58844948273173    6.67367755351163   13.66467921376390
H         3.88916512238400    7.19691707387090   13.66406322887396
H         3.15999296762648    9.08813872053146   12.75342393213553
H         4.20562604866356   10.28030647093771   11.94898821294286
H         2.50996821284755   10.88122375089488   10.53886196198516
H         1.48542614806349    9.73528839477195   11.43142993173310
H        -0.21249516256176    8.61695307828422   10.54984400907927
H        -0.77259600102864    8.80925576108216    8.87362969092998
H        -1.50562270631550    6.64959598723622    8.88236977993860
H        -0.94597246718072    6.50381118110586   10.56363627239896
H        -0.20960676147298    4.61904594436665   11.48207137652948
H        -0.14236352472351    3.05540564927816   10.63825965572304
H         4.44177039409319    3.51629596703287   10.51006299598185
H         5.47233602352389    2.70747967757473   11.68655145882067
H         4.10380819546705    1.84843368993490   10.96248414934210
H         3.23476209182752    1.30341331538084   13.27151567848251
H         4.59563054998902    2.16387493570927   13.99272886027086
H         2.94299422512684    2.59562679702410   14.43815751642930
H         6.66472124326344    8.74904692440183   14.12503450918670
H         6.09101523491950   10.25391766999256   13.40480714396050
H         5.05582670593693    9.35862677710379   14.51958795034234
H         5.88466658466384    7.79538751921729   10.59581579825134
H         6.56509943402779    9.34004598129075   11.09853285229894
H         7.14698886013972    7.83328843636484   11.82327474579940
H         0.84523459632184   12.02162192488725    9.27432207695108
H        -0.51566337843217   11.15396622821665    8.56183238483534
H        -0.33298916140671   11.22044325885603   10.31633960299280
H         2.39905200086386    8.89502490529608    7.93898133835352
H         1.07488964577197    9.76437399017076    7.16967358307549
H         2.43548902621012   10.65404117709556    7.87139223164279
H         0.91204509726844    4.64188056370498    7.94932042332145
H        -0.10967507473993    3.20752805359134    7.96096812410081
H        -0.69301806234632    4.70989662692885    7.22811301429473
H        -2.75315851694100    4.62943267239787    8.68269118731372
H        -2.17931559672266    3.12665839458926    9.40714371154801
H        -2.59822874693762    4.49836771179804   10.43620031124271

