57
CSD_code = GEJJIP | q = 0 | S = 0 | Stoichiometry = C26H24N2NiO4 | MND = 4
Ni       -1.19525802276381    5.00310857446020    0.00002689780826
N        -0.52438092206356    6.48403110591553    1.08982608549369
O        -1.35409464127353    3.98452793972094    1.50735178176976
O         2.39236538174761    6.77061716873530    1.10541035576881
H         1.99160139615911    6.03228963870669    1.58066533828445
C        -0.56677160112581    6.53952833940219    2.38691554369002
H        -0.15646329665244    7.43732623453652    2.84859630980694
C        -1.03036860141138    5.54532869604777    3.28082994327419
C        -1.34807325174389    4.26701674309957    2.75664770119665
C        -1.65642719102543    3.21059412370201    3.67260726351295
H        -1.86915029288471    2.23989383469383    3.25018614807569
C        -1.68133902088863    3.42443321753538    5.00806659455781
H        -1.91411018747644    2.61445077129883    5.68523022970490
C        -1.42441534888983    4.70705607902419    5.56034350069645
C        -1.49539179765667    4.91296022360364    6.94757551937037
H        -1.73382950432533    4.07156442151025    7.58264113718497
C        -1.27490410569524    6.15232938686401    7.48836349976355
H        -1.33135029682533    6.30609274843692    8.55544828734035
C        -0.98536535213350    7.22478534431058    6.64305564924948
H        -0.82686253552563    8.20720973408276    7.06353085057470
C        -0.90575648219300    7.04645760441640    5.28444763632759
H        -0.69913880014573    7.90861275826429    4.66951983611113
C        -1.10705707251773    5.78478965604848    4.69633739251984
C         0.18115929955924    7.56936061895242    0.43264753258502
H         0.29828592751992    8.42157294810364    1.11318089256108
H        -0.36891070164638    7.88191900963785   -0.45551498243289
C         1.57777285109226    7.08258423961607    0.00426155077832
H         1.46153622672079    6.21117101244226   -0.65800218930830
H         2.09360491692631    7.87805515988374   -0.53695997443759
N        -1.86600133907621    3.52214916823329   -1.08979910046237
O        -1.03651048841352    6.02174837635241   -1.50725167885477
O        -4.78264403328773    3.23476203347874   -1.10538917726828
H        -4.38209001528606    3.97321522422374   -1.58062577996511
C        -1.82377050920983    3.46676332488743   -2.38690435064328
H        -2.23389954750063    2.56888691696978   -2.84859205646829
C        -1.36042948906596    4.46108575714961   -3.28080963158152
C        -1.04271542766998    5.73937166084665   -2.75656775313590
C        -0.73474187863236    6.79593776614780   -3.67249005487606
H        -0.52198865204720    7.76660372851512   -3.25000931408595
C        -0.71010978624393    6.58224250532750   -5.00797741402436
H        -0.47745417396954    7.39228653848604   -5.68510401531253
C        -0.96696626502496    5.29963585863737   -5.56032547096269
C        -0.89625809933649    5.09388572020548   -6.94759310811186
H        -0.65809327043242    5.93538393413408   -7.58262551206566
C        -1.11674975355571    3.85455685743262   -7.48846788209933
H        -1.06053456382456    3.70091527706317   -8.55558258881775
C        -1.40600300574748    2.78198414655082   -6.64321167556142
H        -1.56447105884012    1.79958330170978   -7.06375420128469
C        -1.48532249516399    2.96015868473980   -5.28456698172755
H        -1.69168459380382    2.09791077052676   -4.66968473823458
C        -1.28401627057771    4.22177898576599   -4.69636167698966
C        -2.57122970539605    2.43660781458056   -0.43263463445900
H        -2.68812089672366    1.58437756249755   -1.11318703778552
H        -2.02107056065637    2.12417503080492    0.45551662212907
C        -3.96797245041204    2.92300408466322   -0.00423901503052
H        -3.85197048886275    3.79443903260383    0.65803738023614
H        -4.48358815410080    2.12738260441418    0.53696451561488

