58
CSD_code = GEJLUF | q = 0 | S = 0 | Stoichiometry = C26H27AuClPSi2 | MND = 2
Au       25.82466178664939    8.09882675694609    4.84850952721323
P        24.69773189093906    6.55925684626351    3.65474729183774
Cl       26.96250434909756    9.68519726844572    6.00945486668718
Si       22.73860384049584    5.40713128724072    5.99587118297699
Si       22.94071922648782    8.67595603118441    1.88792025800113
C        24.06604266969072    5.16709620779918    4.66065743516165
C        22.47595292259452    3.72619755216849    6.82684896974241
C        23.48091209360646    3.16462075612350    7.61137160673261
H        24.40827772868498    3.70253692623176    7.74894535729084
C        23.31272978247986    1.93364701033641    8.21822002379442
H        24.10553227554656    1.51625052309122    8.82227450830486
C        22.12764986054722    1.23620618678508    8.05274323452654
H        21.99333233918578    0.27413075499665    8.52514468309729
C        21.11581156734125    1.78001811792465    7.28032222712942
H        20.18767763788406    1.24233363515861    7.14929658189754
C        21.29176239649097    3.01166336020999    6.67546474780577
H        20.49505793784593    3.42675813084099    6.07662367775573
C        23.33276595119074    6.71346298502036    7.24650601668094
H        23.61096151150823    7.63884957937674    6.74723048340075
H        24.20598518561490    6.37128830958835    7.79393983345654
H        22.56062454265686    6.94641239962200    7.97357827394006
C        21.17895584659976    6.00202141819352    5.07809460781166
H        20.34871366387027    6.15475817155484    5.76032528552697
H        20.86386684326217    5.28895266217023    4.32149870553166
H        21.37132537594587    6.94630138687653    4.57635867733414
C        24.87268422438783    4.08709559208834    4.48804464054507
H        24.77349921424239    3.20337685469255    5.10077631650429
C        25.76907706170616    4.13665707468088    3.34944459035846
C        25.70248188123193    5.40449267634397    2.78230631123097
C        25.85881523841044    5.66987610788626    1.42634539984542
C        26.50485874314883    4.68652760556543    0.68090352467966
H        26.69709299007607    4.81926812294887   -0.37341936263634
C        26.82290712551104    3.47988910175089    1.30029472610856
H        27.31857242095557    2.71802055472837    0.71607841240761
C        26.41426644324970    3.16096825319859    2.59342487501661
H        26.53817012324083    2.15507322830256    2.96625758140895
C        25.03258148056686    6.80907992268795    1.07683501803108
H        25.02228763688239    7.22720002581831    0.08113730515191
C        24.18185955271383    7.24814068663483    2.04154817582620
C        22.83264949434339    9.53293510972970    3.58361856225113
H        21.99847001808556   10.22627078184015    3.63294538322875
H        23.73827188287090   10.09271131132419    3.80140611385980
H        22.70494688748368    8.80116749171628    4.37877817994309
C        21.26745411262165    7.90584224320278    1.39734392573147
H        20.96406281401183    7.13939371382217    2.10406914577529
H        21.31819533804112    7.44338886697117    0.41619772174442
H        20.48508923019309    8.65768597476034    1.37157694747137
C        23.60806688887417    9.84776955977551    0.56076888813721
C        22.82907677926074   10.26294044210348   -0.51468891072511
H        21.81221027073754    9.90942503566791   -0.60009150343765
C        23.33578962011312   11.11998895562278   -1.47509213918516
H        22.71472552226577   11.42999270173961   -2.30333064844926
C        24.63760202989359   11.58038055356432   -1.37495356494858
H        25.03540817336715   12.24942276750049   -2.12394319586708
C        25.42735007732000   11.17996612795075   -0.30965631474480
H        26.44309559328430   11.53769223578836   -0.22461941582051
C        24.91547408142484   10.32261468664720    0.64638038978977
H        25.53864782326894   10.01357136879251    1.47436485714013

