48
CSD_code = GEJPUG | q = 0 | S = 0 | Stoichiometry = C13H31B2PRu | MND = 10
Ru        7.40732402595878    3.17386479524872    3.51158439692251
P         9.39701562836069    3.17371752022755    2.37967460120960
C        10.91598949319600    3.17374790193840    3.41703645277654
C         9.79639121988928    4.58214537232356    1.26138797009244
C         5.25775096160199    3.17376668651490    4.03969953732241
C         5.52698102771672    2.01844176850572    3.23614898647772
C         5.99527666770485    2.45139815542541    1.95924530446018
C         4.52350351098491    3.17376289664509    5.34682730385286
C         5.18342483463996    0.60722417041359    3.60413957132866
C         6.12017064111712    1.57406172929356    0.74826638588761
B         8.26189713901038    4.40412246895201    5.78993521053140
H         8.05266519072918    1.93987889243546    4.50549128283699
H        11.81703145984440    3.17376239503218    2.80404447395806
H        10.89842701518848    4.05673672752876    4.05485047073684
H        10.80265632580758    4.48120785242948    0.85650103496184
H         9.07902376949022    4.61591715795051    0.44478770097516
H         9.72152420021394    5.50683377496684    1.83134994284582
H         9.32386510208024    4.87444440532201    6.00385065660783
H         7.35153083533175    4.89414559382506    6.35901936450209
H         8.33002507770843    3.17370021593862    6.20142352301811
H         4.77223022021480    4.05496660243606    5.93486157690396
H         3.44449007004717    3.17372580655665    5.16978911347689
H         5.78854120004719   -0.10456286227012    3.04554874895751
H         4.13211843147499    0.41617698525959    3.37508814319796
H         5.33781068864503    0.42887136827693    4.66670103559513
H         6.69621700161996    2.06101207056371   -0.03615046900860
H         6.60050001967898    0.62778181822560    0.99233328319846
H         5.12589828541712    1.35596301898477    0.35074293798992
C         5.52692705652308    4.32908356702923    3.23611647387986
C         5.99524952942245    3.89610608414307    1.95922563081820
B         8.26185464276906    1.94333892619849    5.78982255405098
H         8.05272037478191    4.40769975022545    4.50561716974990
C         9.79640245932086    1.76537581227529    1.26130038925937
H        10.89843886941682    2.29074177446530    4.05482269248418
H         4.77228376640737    2.29259261336462    5.93489068039464
C         5.18341480851424    5.74030917654610    3.60411143957944
C         6.12017686089750    4.77340627453342    0.74822446419111
H         9.32385845185316    1.47314704862873    6.00385325947026
H         7.35152210957204    1.45338056612211    6.35901639313114
H        10.80267134521312    1.86634200213347    0.85642566417697
H         9.07902411067629    1.73165361405138    0.44470673586644
H         9.72152447097121    0.84067581478271    1.83123927436582
H         5.78854148913422    6.45206998220126    3.04549822576971
H         4.13210343656048    5.93137664609817    3.37508422819090
H         5.33784056195611    5.91867550903408    4.66667432092285
H         6.69628028678013    4.28644395499220   -0.03614472661640
H         6.60046983335397    5.71970516068546    0.99228697599881
H         5.12591549215593    4.99146043353894    0.35064961269966

