145
CSD_code = GEJQES | q = -1 | S = 0 | Stoichiometry = C64H64FeN9O7(1-) | MND = 5
Fe        5.00538187296587    1.68209939674647   17.54813051822532
O         6.14217641274962    1.44593085024601   15.77649305433092
N         6.30303742409848    0.33197326506913   15.20469610102696
O         5.80644990930372   -0.66372908842996   15.71930170620356
O         6.93690839226220    0.28275130435170   14.17263239735833
O         0.96079720931947   -1.10113180605589   11.77349896829777
O         6.59817841131106    6.45659272781191   12.27190977545843
O        12.44272158019834    2.54895976858733   17.73176961582723
O         7.42258943571665   -5.46408364132412   16.96268146040716
N         3.55678967191629    0.35136389361983   17.21125796709195
N         3.92491700810911    3.06122402358961   16.59861573909497
N         6.28833991556998    3.07791243845207   18.14964226567901
N         5.99700332544116    0.32764416497716   18.63110676882893
N         1.74666242424806    0.08705788562662   13.54906854429488
N         6.29265101731300    5.52086719620164   14.32338600182602
N        10.28545640785917    2.06660193847152   18.27092479135102
N         6.08026150019448   -3.62938200135059   16.99037136717873
C         2.39418476420839    0.54523809251111   16.52414674900606
C         3.52378104921644   -0.94718756687286   17.62680249514319
C         2.77197583786599    2.87835630661216   15.89118271346968
C         4.29607910543828    4.35216416614986   16.36642484469162
C         6.30471845916780    4.38917347722751   17.77301948210070
C         7.37809066377670    2.91473994332775   18.95488168734168
C         7.16626862422794    0.50198645506285   19.31196710975884
C         5.70413365057431   -0.99900655276956   18.74209427614547
C         1.58484421241199   -0.64141652685247   16.55454576412577
C         2.29419427650791   -1.57318598263751   17.22979827649923
C         2.41009830988795    4.08038911069383   15.19610864318258
C         3.35356635117499    5.00088388136751   15.49890966503360
C         7.41122901000150    5.07508484796839   18.37678103300948
C         8.06880587783782    4.16172457853738   19.12793004460152
C         7.63524527769056   -0.74688934558768   19.84226130867766
C         6.72404392773409   -1.68122844338062   19.48913445863163
C         2.02562591532801    1.70592159184099   15.84957664221510
C         5.40910808964321    4.99460143470554   16.90030969094022
C         7.82038598722178    1.71262160535134   19.50128987301702
C         4.54414823997572   -1.61702292709938   18.29057395427618
C         0.77702263479395    1.68860289062857   15.05343164776295
C         0.65522743089512    0.87561383900895   13.91280802882350
C        -0.53149209782083    0.89201289052217   13.18635509598023
C        -1.58598116834516    1.69219252445032   13.58609256118229
C        -1.47331432866563    2.49089335780648   14.71060197211369
C        -0.29358791831315    2.48608076203069   15.43334186992568
C         1.84518423426559   -0.84928821237993   12.56611898846444
C         3.20200600693566   -1.56861241743246   12.54829734139503
C         4.31153575361556   -0.55522241759292   12.25229153380946
C         3.45007253925017   -2.25413106620383   13.89888971041212
C         3.16655480133097   -2.62439219202993   11.44122142719137
C         5.67707074687934    6.38696825621020   16.46668674727094
C         6.11831591875725    6.62633717820779   15.15394555198205
C         6.36759178957054    7.93061100480345   14.74156917151832
C         6.17664994481476    8.98422010149203   15.61759641661395
C         5.74338659442947    8.75345231308046   16.91146496856140
C         5.49785503316239    7.45632802232559   17.32954108384696
C         6.45625681045232    5.47591937227966   12.97326469144200
C         6.45601203837784    4.04454926064078   12.41939809023978
C         7.68465840444214    3.30115073830265   12.95141250358002
C         6.51691068093237    4.12015278591503   10.89270691514356
C         5.18209482445915    3.30409765151489   12.84634444066971
C         9.07390865911104    1.72063546507152   20.29477185425709
C        10.30955702337362    1.91216011410969   19.65467161248448
C        11.48041195391820    1.92641768810160   20.40345086693343
C        11.42617910738191    1.75177929431547   21.77479228587666
C        10.21270711174947    1.55549245371191   22.41086478158941
C         9.04387676864238    1.53888364095865   21.66841347474800
C        11.28397186775359    2.38600715612748   17.40830254392506
C        10.78644428304300    2.57732967973408   15.96688548988625
C        11.98192846795323    2.43349501463266   15.02306868409198
C        10.23148304990785    4.00655480082039   15.88632154519949
C         9.70421658549240    1.56214470368081   15.58505635527462
C         4.35797235816103   -3.05821378313030   18.57580277737765
C         5.12631248994518   -4.03638450520193   17.92557466444407
C         4.90522613583795   -5.37883314921952   18.22387455209808
C         3.95543815530201   -5.74532531650893   19.15926234598095
C         3.20357549746552   -4.78241520133254   19.80906152911036
C         3.40712610269370   -3.44739934185257   19.50942753237484
C         7.17968035376524   -4.33016682338254   16.59814675037383
C         8.11061447202520   -3.56687728429965   15.64771659483282
C         9.28432650352705   -4.48224247383093   15.28993548897078
C         8.64227883385745   -2.31216460079092   16.34811307734921
C         7.34929615313488   -3.18936325585589   14.37395379464797
H         0.60920430798592   -0.73305151434437   16.11674172270135
H         2.02360404453478   -2.58886682958366   17.44216657466683
H         1.54962923648846    4.19144778976025   14.56526899220696
H         3.41443040018262    6.02306384222429   15.17763552343898
H         7.64055993086495    6.11400241388015   18.23936737716822
H         8.94053417291726    4.30358016348454   19.73777097571052
H         8.53988620290144   -0.87320067802088   20.40526603610242
H         6.72447026635284   -2.72999174348006   19.71532350560213
H        -0.61785373305389    0.26936250372680   12.31199900430240
H        -2.50129283068102    1.68919293100968   13.01211287812318
H        -2.29781361828243    3.11432299018035   15.02483055239844
H        -0.19297219002003    3.10197676479847   16.31567913439083
H         6.70080638021034    8.10731325135711   13.73272709460811
H         6.37021128455392    9.99338905301602   15.28369866033025
H         5.59433511385235    9.57819549395034   17.59332965162219
H         5.15288869893296    7.26287739433806   18.33537833544321
H        12.42180627477084    2.07689396253338   19.90188205245062
H        12.34170068429444    1.76658406714629   22.34829083915242
H        10.17386191558239    1.41640525782690   23.48154059240361
H         8.09022219221945    1.38888181683546   22.15404675494403
H         5.49263126535048   -6.13103645800439   17.72588553086419
H         3.80266986481373   -6.79224843907532   19.37864512215709
H         2.46395662838988   -5.06651670243961   20.54371673798564
H         2.83023467437287   -2.68305046397784   20.01097244477960
H         2.53993384945245    0.18229162541326   14.17063954823312
H         6.14439283586888    4.63594656197746   14.79369426412104
H         9.35570898179037    1.98048503873834   17.88002271056155
H         5.99192544660425   -2.66502911589441   16.68665764338107
H         4.16397233926794   -0.10530771645355   11.27187154198916
H         5.28076217995923   -1.04838644548864   12.26757906909530
H         4.33687070117625    0.23937488474630   12.99402337406147
H         3.78162809061105   -1.55453722882429   14.66217490215152
H         4.23097155823699   -3.00260356578026   13.78656569065752
H         2.54928027576892   -2.75222382634189   14.25280592864494
H         2.41227235499959   -3.37556861860328   11.66242215759291
H         4.13582830642491   -3.10932544669673   11.35425171916309
H         2.91347728597758   -2.16452377124754   10.48911985714435
H         7.68507248935891    3.27304586382489   14.03783526326207
H         8.59977663292646    3.78144978371413   12.60851305256102
H         7.67031150409986    2.27169578598877   12.60075663594592
H         7.37393111923225    4.71107381805160   10.57913195932647
H         5.62014860254696    4.59602310632196   10.50288269168398
H         6.60068259476274    3.12159815188545   10.47077064809506
H         4.29894863453087    3.92363847864170   12.69910839081656
H         5.22303765096841    2.99561216863836   13.88951227442037
H         5.07747951422526    2.40544023379593   12.24296670236527
H        12.33810429754936    1.40575860817176   15.02237692042537
H        12.79621702276646    3.07405323411251   15.35180723092638
H        11.69897776295888    2.70798063757312   14.00975776380814
H        11.00066786574470    4.72552658446120   16.16195138817636
H         9.38377894213566    4.13708487164610   16.55697338738556
H         9.90428986992060    4.22178920337397   14.87199071883811
H         8.72992707888442    1.81560627538030   16.00139942215321
H         9.97723051321828    0.56193213747667   15.91625779760127
H         9.58668360631235    1.53702343705100   14.50442314526224
H         8.92375995077029   -5.38472618273318   14.80233214376743
H         9.82027344067671   -4.77818117430531   16.18842062273158
H         9.97103475555186   -3.96866947724357   14.62081863021277
H         9.14987090373597   -2.57510135625279   17.27471720285438
H         7.84216406447581   -1.61638826586770   16.58238558436929
H         9.34949268563302   -1.80670229547777   15.69350650723715
H         6.56803097554068   -2.46645486155083   14.58467920998547
H         6.90360791992046   -4.07379635329629   13.92098056593765
H         8.03355207122753   -2.73918303824417   13.65766452540025

