79
CSD_code = GEJSEV | q = 0 | S = 0 | Stoichiometry = C32H24F14N2NiO6 | MND = 4
Ni       -0.09659752951813   10.70680863284915    6.70168791046441
F        -5.10475421186166    9.93949726814147    5.89288259470765
F        -4.50408532443524   12.00597222884875    8.59278961057852
F        -6.93932384701278    9.55226127221777    7.93212852025954
N         1.71902431340345   10.51554447191136    6.82091547798440
O        -1.94150889851771   10.89288447237721    6.63527822202776
F        -4.20844480077266   11.85665833050279    6.16786545536764
F         1.40614611868540   15.52333669746439    7.42075139536071
F        -6.84463534869314   11.11384810587456    9.39346049854891
F        -4.35901948076924    9.91242731799207    9.01942379212017
O        -3.31251221652511    6.41748841228334    6.82495060500836
O         3.42164184444298   14.85658746749304    6.01433020402244
O         0.04285946787392   12.55196182717111    6.61684537499428
F        -6.93383495249238   11.60571179836533    7.30339142719909
F         0.99720690472904   15.32770605373775    5.29358292768617
F        -1.18997500174620   14.45559150151757    7.91608775724230
N        -0.21382266287955    8.88083588452062    6.75098752452923
O         4.68484488387638   13.23954945301567    6.91107304720033
C         3.47689757908142    8.79310473392095    6.37817866879051
F        -1.54176160368873   14.55674544204576    5.76978034075714
C        -1.29612066268225    8.16484543968548    6.77655805705504
H        -1.19699509232427    7.08153918686883    6.76802855647645
C        -4.26951605604978   10.61862166539534    6.70349732528632
C         1.05257185531976   13.29939493211368    6.57370490471794
F        -0.66714310267811   17.06232389845866    8.06118513121500
C        -2.83930570568990   10.02667283257242    6.73794943792196
O        -4.82941967476733    7.96243444072951    7.39914583675057
C        -0.80746670441536   15.05814823302141    6.77499096384931
C         0.70733277348648    6.88942119936668    8.77375456761965
H         0.27366212315585    7.78190921253241    9.20205110454128
C        -4.87003443241353   10.78943922079778    8.13639265166133
C         2.37026227029396   12.84864892423223    6.63424675938715
C         3.60956197125016   13.66307452730866    6.55343362087469
C         5.62944772889724    7.72577873982615    6.38811710901241
H         6.39805720771993    7.18357377910896    6.91734010963790
C         0.70987162340630   14.80786986186217    6.50707476626918
C         1.14615183672146    6.90292294519624    7.45418651734659
F        -0.63316517077030   17.29770082238271    5.92500788784026
C        -2.62348169082233    8.64815505009030    6.83055219274431
C        -4.28073076762787    5.39127751049845    7.06574454392316
H        -4.98174478399476    5.36923251301395    6.22469941157162
H        -4.84187777157922    5.64296022758224    7.97141611747574
F        -2.45862509045257   16.76053248051656    6.91706733211006
C        -3.54678801949851    4.07080750718802    7.20766941895422
H        -4.26350275167004    3.27443268005972    7.38324571256224
H        -2.85167873693642    4.11376474784557    8.04227355817857
H        -2.98855856362006    3.85255035968244    6.30127444345409
C        -6.42538790867028   10.74284289317972    8.18185605166928
C         1.36111003920361    4.59063766289921    8.97719946395341
H         1.44258772210575    3.69124544981682    9.56834925461950
C         2.60416121876238   11.46288866824574    6.80928375104767
H         3.65511510217455   11.20450477549845    6.94235001054093
C         3.65183952261776    9.11362359897758    5.03663948273558
H         2.87851277430490    9.65697369986015    4.51203940922515
C        -3.71471612607373    7.67556337077888    7.03845668696806
C         4.04844183237361   17.13770536257394    5.71237139356917
H         4.88903104006279   17.81499574272943    5.59499939884215
H         3.45649447819526   17.44532392889604    6.56981378938287
H         3.42164385852655   17.18333645715465    4.82632171931364
C         0.80928712577783    5.73555082590249    9.52876874198858
H         0.45858640186138    5.73042241182777   10.54953357863665
C         4.55527493828586   15.72248869355253    5.91229645131799
H         5.16552565221290   15.39282848995079    5.06391845823943
H         5.15313412274304   15.62904854591952    6.82492142214752
C         4.81417069462966    8.75194055354251    4.38113465027740
H         4.94638733615476    9.01079004636747    3.34164079981344
C        -1.14324414499319   16.57372213982246    6.91805864641569
C         1.70380354107594    5.75551556653055    6.90821433594943
H         2.05782996885771    5.76504368194649    5.88771160078468
C         4.46983992104463    8.09354547016183    7.04871418307961
H         4.33478710312762    7.83538613897862    8.08886005672855
C         2.18818269137735    9.14655175805357    7.08193479971586
H         2.32690085354215    9.04629131714312    8.16782822216201
C         1.06990483831875    8.17233842335354    6.63948761098450
H         1.22277910238331    7.93208088435170    5.57734909788874
C         1.81178882390731    4.60363017054973    7.66858489654263
H         2.24891520311718    3.71613628808235    7.23714584914669
C         5.80452244832618    8.05691553756718    5.05582293663487
H         6.71107997922758    7.77437713558530    4.54279385638920

