67
CSD_code = GEJSAR | q = 0 | S = 0 | Stoichiometry = C28H24F6N2NiO6 | MND = 4
Ni        9.16703608813144    8.70580180018677   16.45156921567704
F         7.88601524214151    4.72020878248046   13.67385741161639
F         7.48897100492935    7.97940407184273   21.11174791794607
O        10.12990205211354    7.21311575343688   11.38731448870902
O         8.10938030848375    7.42737215250310   15.60833148855233
F         6.60964136506547    9.89788715904072   20.62939033256203
F         6.15286500045885    8.17439078387738   19.45152152058715
O         8.17936584511213    8.51739838458239   18.02090278691026
N        10.04983306820605    9.07511917125952   14.87294755545959
O         8.89253772849739   10.01928511460800   21.78354905222726
O         8.11353448459613    6.25792900207762   11.56871615175438
N        10.35981491771432    9.83155993615806   17.29148607640494
F         6.71848815235225    5.35490715658708   15.34721956310817
O        10.34429464787300   11.51143412267734   20.94378948158205
F         6.20812168958751    6.06876069270111   13.39649473758126
C        10.13494469865482   11.52155282320460   14.84111284448481
C         9.91724496419193    8.50083670529516   13.72237721315745
H        10.52768001398760    8.85060823416459   12.89195150697897
C        12.55104409194559    9.07313515608295   16.51411715916420
C        11.49381054618887   10.15761164670074   16.44085455745440
H        11.93201855620575   11.12223451511294   16.72812457277170
C         8.17615003976640    6.97653810818890   14.44062016646088
C         9.35258613241161    9.94591679079885   19.48195283538724
C        10.91920559427024   10.23337185810172   15.00344599663535
H        11.73145448474318   10.19812734408454   14.26528093634179
C         7.23871021304701    5.77319832920514   14.18765958564209
C         9.02823120301329    7.43946893597159   13.43196282615604
C        13.89091347807949    9.40988288335690   16.37319630922428
H        14.17214559500870   10.44559402428036   16.24715904307936
C         8.30971979783733    9.08485281033370   19.13309728024592
C        12.19957925583596    7.73803728805269   16.67967829503384
H        11.14925473217608    7.45291141616516   16.80382694570246
C         9.57442434382191   10.58946635428715   20.79667222494518
C         7.14412335456028    8.78607003869543   20.10254698759174
C         9.00973786561278    6.89405782877450   12.05924775952366
C         8.81236062923758   11.61636839463187   15.25934227910067
H         8.29594037189933   10.74199940401515   15.67131036160256
C        10.20176064118040    6.73381614179645   10.04172465983479
H         9.43967700157767    7.24693552264482    9.44434149173155
H         9.97125696274634    5.66321760942325   10.03699765312424
C        10.76207300025940   12.64286788618823   14.31372332544023
H        11.79009101098124   12.57719749986868   13.98695004666643
C        10.33259083868785   10.25993333903263   18.50899417601059
H        11.11849719308594   10.93105611518436   18.85643484184003
C        11.59693187331852    7.00528824734928    9.51187429644583
H        11.67279353913309    6.64519674901293    8.49020663595414
H        12.33663643880901    6.49571197751159   10.12446767003223
H        11.80534667947015    8.07242105565746    9.52802464603570
C        14.50963155336349    7.10024593851754   16.56333155903033
H        15.26967847760370    6.33436626623132   16.58462024713485
C         9.01546913475034   10.59227961858488   23.08714124340906
H         8.73557804599618    9.78683109255727   23.76817435459079
H        10.05934304819245   10.87990636196210   23.24963490816165
C        13.17494429161064    6.75741689071943   16.70351755739140
H        12.89217298888117    5.72401756906088   16.83378139468564
C        10.07835022373690   13.84111041606686   14.20501982530979
H        10.57479718631985   14.70559163500002   13.79088711636537
C        14.86574191564660    8.42779654778401   16.39895405441997
H        15.90464784395866    8.70123452970918   16.29319564240870
C         8.13044402917529   12.81504412520418   15.15036663533361
H         7.10373528814544   12.87828191833089   15.47681371575220
C         8.76188548026070   13.92954780056682   14.62367090495523
H         8.22789583983092   14.86344951017524   14.53762784427724
C         8.09875628631398   11.79556334094361   23.24774588273553
H         8.14407848552323   12.15381005404023   24.27203699457548
H         7.07571522532860   11.51704087935094   23.00844007413520
H         8.41249791835031   12.59340838799451   22.57912513485375

