66
CSD_code = GEJSIX | q = 1 | S = 0 | Stoichiometry = C32H30NOPRe(1+) | MND = 9
Re        3.54564639766140    2.12479349766309    4.15329015086439
P         1.98929901581317    1.46988211026564    2.37853868882573
O         3.03495370036904   -0.34858899435534    5.60079075510866
N         3.18956810684955    0.65059093459908    5.02072412126636
C         1.87480813463984    3.59082372119838    4.93605293961854
C         2.44976462800043    3.17138725210985    6.13532799728885
C         3.34650914151306    4.02802250462912    6.96997223486619
C         2.45333797653532    4.63401856407924    8.03712445210405
C         1.79112345562916    5.82959369998902    7.79675369034483
C         0.98188940227737    6.38697750139010    8.77093471524882
C         0.81918622000302    5.74622901164303    9.98750017600292
C         1.46816194848164    4.54666934498870   10.22723481813104
C         2.27842952617728    3.98924408732876    9.25380962259838
C         5.59180282029384    3.28815927670848    4.61541189392703
C         4.98367423638147    3.94891430887410    3.50510415841262
C         4.92830482966961    3.04433370614317    2.43683286116145
C         5.45301661047485    1.79175632384243    2.89077323298019
C         5.91605176368379    1.97463873832435    4.22316152987407
C         0.28041351036527    1.06166511785998    2.85718058806048
C        -0.02799579588532    0.76030521342946    4.18133001500630
C        -1.31643268791748    0.39215372088746    4.52553734723098
C        -2.30319505015970    0.32475923828037    3.55486889334058
C        -2.00012949337229    0.62777580826625    2.23729980519827
C        -0.71390015688456    0.99547778368392    1.88492261479259
C         1.79458727156840    2.64029728994449    1.00558092080189
C         1.79023809265496    4.00660983491736    1.27023218543157
C         1.59311522813486    4.91461846471254    0.24626783186131
C         1.39607111943945    4.46457063832263   -1.04953558955476
C         1.39039089837900    3.10495172965925   -1.31714439601738
C         1.58608250534012    2.19068255721809   -0.29694940723049
C         2.62013426671676   -0.07021806553404    1.65465934550764
C         2.18615272014997   -1.29021254333300    2.16839508299180
C         2.71244473766782   -2.47116868072077    1.67733136403777
C         3.67710346412716   -2.44385657036848    0.68283987480207
C         4.12172985439649   -1.23116755207799    0.17920680338026
C         3.60294463106233   -0.04590979549749    0.66634558771883
H         2.13334861005787    4.58631040342556    4.58677689343093
H         0.86925661902473    3.27456375780299    4.68006572394121
H         1.94684943137399    2.38675777198235    6.69917221146412
H         3.80348426125071    4.82291455598790    6.37991870705622
H         4.12094446651077    3.43168519407481    7.45374621314613
H         1.91763452126709    6.33608371700018    6.85060301789139
H         0.47989641664302    7.32315189881863    8.58004861560405
H         0.18878618927731    6.18118478715743   10.74726890406894
H         1.34583411248286    4.04427943387762   11.17459015588715
H         2.78740613481917    3.05595293219043    9.44663475365987
H         5.89136131287056    3.75747094288745    5.53758129782574
H         4.76064377809403    5.00413015923735    3.45216247428735
H         4.63691892789821    3.27438786217471    1.42345358505395
H         5.66825137804099    0.93877911726092    2.26673091236532
H         6.46705151590447    1.25306303103070    4.80396159831312
H         0.74494534338801    0.81506872871266    4.93621823717465
H        -1.54910161881170    0.15572104106697    5.55192171501760
H        -3.30744299967132    0.03779981190346    3.82491978421841
H        -2.76711472579823    0.57683492969638    1.47993514728444
H        -0.48596041584265    1.23230801115128    0.85600813539146
H         1.94275168011251    4.35196549007482    2.28260652841612
H         1.59276378164878    5.97320362882076    0.45720354693437
H         1.24662957758454    5.17237049644728   -1.84982824526426
H         1.23314052780766    2.75274366116745   -2.32511701335617
H         1.58173652708691    1.13168247370081   -0.51338001477876
H         1.43628531970706   -1.30855458486366    2.94603900253487
H         2.37079295288259   -3.41454348911903    2.07384698484443
H         4.08656525949158   -3.36644578308978    0.30169155910825
H         4.87637304984908   -1.20936401873602   -0.59257179661654
H         3.95238503427151    0.89851425954151    0.27188445906315

