38
CSD_code = GEJVID | q = 0 | S = 0 | Stoichiometry = C19H13N3O2Pt | MND = 4
C         5.63453724904378   13.60100861058235    3.10729816138409
C         7.99393147011298   11.34000624030823    2.88953433466338
H         6.92820524101581   11.28375726818870    3.07492429316944
C         8.76135085651103   10.19031211419809    2.81320150978795
H         8.29830873941553    9.22570533723900    2.94127568980503
C        10.12147069386172   10.30950955330340    2.56907735985949
H        10.74940776897486    9.43415097439053    2.50117130821930
C        10.65977154230728   11.57371513295091    2.41443543309396
H        11.71348647905956   11.70393572058775    2.22496685284701
C         9.84324808575476   12.69678806349370    2.50373930615555
C        10.31832192848112   14.07422377071920    2.35860336326057
C        11.59308842768948   14.55531720274499    2.08684103627021
H        12.44188329031116   13.90280759759870    1.95055902196767
C        11.78020665174709   15.93744355673406    1.98054230034095
C        10.72597225922392   16.84677112654070    2.12771981652674
H        10.94917968483806   17.89814418881970    2.01898340722482
C         9.45363014550436   16.36397116171560    2.39936990965560
C         9.27655103702743   14.98646738191135    2.52390530388300
C         8.19017645051343   17.08100446267120    2.58129059178530
C         8.06426911295068   18.46577581859608    2.53555026704344
H         8.94118896339142   19.06687311467450    2.35481955886217
C         6.82767956144866   19.05595536315180    2.72152969975373
H         6.72210082828251   20.12961718063917    2.68746005521164
C         5.72894064328430   18.24148461989274    2.95263060906936
H         4.74622944563868   18.65722325505103    3.10363778387049
C         5.91006216120838   16.86937607014940    2.98555822149481
H         5.07360764783883   16.20358333599198    3.15997119977870
C        13.11621085201490   16.50401863999031    1.69426706438795
C        15.37813033256675   16.04038164000615    1.31121037805852
H        15.65999775043640   16.81097137512504    2.03197079190346
H        15.42225886435997   16.46770037397727    0.30687740333160
H        16.04027404173015   15.18145142364092    1.38828473208766
N         4.56648727237172   13.19512477330489    3.28424683146503
N         8.50349455042035   12.56107140771096    2.74099640406535
N         7.09657329312959   16.29229622246234    2.80661713184470
O        13.34535307817354   17.68415261215101    1.57220829863986
O        14.07128906559602   15.56250846127381    1.58563864201214
Pt        7.48502453376500   14.30649484751275    2.82898592721672

