87
CSD_code = GEJWEA | q = 0 | S = 0 | Stoichiometry = C41H39IrN6 | MND = 6
Ir        4.60601653224137    0.25750398716379    2.04575692963218
N         4.68318742943197    0.33740784842789    0.04443449455229
N         4.55941575293465    0.26184420256635    4.06602199796960
N         2.93042636952634   -1.17076455202508    1.73653483898621
N         5.75279819682987   -1.65245727028989    2.25145037480434
N         2.17591800687413   -2.26695992507632   -0.18478835435612
N         6.23175431533853   -3.85200051770561    1.60235793006676
C         1.18524939978960   -1.25996736522891   -0.47156194301032
H         1.42189779632130   -0.33671815482068    0.05212258091120
H         0.18494505457508   -1.58557542835082   -0.16515899928292
H         1.17630547284101   -1.05544914000954   -1.54733325220531
C         2.18752156605058   -3.37235358612002   -1.10534392105858
H         2.79529517435635   -3.16834770356273   -1.99696448508515
H         1.16283354976167   -3.56753797473500   -1.42526420812202
H         2.56614655715407   -4.27075244263457   -0.61883228892898
C         3.17124761444623   -2.05299172904025    0.74787575227069
C         4.36135970966646   -2.75935136982362    0.63750285150950
H         4.48188081506019   -3.42730368255136   -0.19883135349206
C         5.43949723261644   -2.72422654037298    1.55302827495001
C         5.71000231459953   -5.15057598331884    1.26733023810627
H         4.62801258009920   -5.15619094132114    1.38287856705623
H         6.13729072757092   -5.89035673185362    1.94947467967168
H         5.96061271474575   -5.44799284709444    0.24038891039801
C         7.65584019014249   -3.81858303094724    1.81881696588496
H         8.03091174531692   -2.80350785953750    1.71807898042202
H         8.14418720695553   -4.44388896552830    1.06436791658844
H         7.92934765460711   -4.19410616175068    2.81157770414621
C         3.77616301733567    1.15560261031468   -0.54361756824311
C         3.56073331855178    1.10895335024168   -1.92156673042105
H         2.81133510497468    1.74267555870459   -2.36749773617698
C         4.30259970988407    0.24961640345413   -2.70636747490702
H         4.13666978947621    0.19449692492991   -3.77204344951784
C         5.28443070508952   -0.52261596742616   -2.09923172097392
H         5.91681343393948   -1.17747301128471   -2.67740019219980
C         5.43566966038039   -0.44544896598046   -0.72812263077385
H         6.20027476035240   -1.02063271634335   -0.22838196330529
C         3.50918406956715    1.91746370528021    1.72810002500244
C         3.03976019146602    2.86141535353053    2.63971103954131
H         3.32603832052038    2.79215002144639    3.68099737233156
C         2.20452813459572    3.89143743904273    2.24486432712884
H         1.85327196666613    4.60872864073091    2.97339520380238
C         1.80789098084851    4.00689295452321    0.91954412987211
H         1.14310600525466    4.80399229393803    0.62015536841506
C         2.27780633911843    3.10952315097088   -0.01551558586382
H         1.98284901282594    3.21590868041117   -1.04949408488004
C         3.13559836770793    2.08057626273392    0.37602259881223
C         6.10713678700733    1.55469396455900    2.40518856787463
C         6.91474256939273    2.23058141029700    1.49410170241747
H         6.77363475170681    2.07948582556059    0.43184707607201
C         7.90626785661629    3.10066532844379    1.91340514003168
H         8.52199239851817    3.60815865319272    1.18347533971226
C         8.11133614808129    3.33137622885687    3.26589266566629
H         8.88115520741466    4.01749343919082    3.58838049350376
C         7.32803268501693    2.68154966017139    4.19653433874304
H         7.49158580038580    2.86713518761097    5.24799482897804
C         6.33539093776572    1.79593818388293    3.77757042753446
C         5.49517487383654    1.02680093285779    4.68121827891808
C         5.63205147981548    1.00932997796489    6.06883696316532
H         6.38693428700326    1.61819274708451    6.53862029700687
C         4.81572655944002    0.20356834237286    6.83505160606873
H         4.91664786793063    0.17965311722426    7.90967147455262
C         3.86942452495415   -0.58034132630428    6.19077961888044
H         3.21074077121403   -1.23185705355520    6.74202838937238
C         3.78336925114538   -0.51911310614959    4.81391613892044
H         3.05545283987329   -1.12015389094996    4.29071998779941
C         1.69726809041172   -1.20843392011864    2.34898033309569
C         0.99289814353871   -2.41795705879840    2.48696207753660
H         1.41286355051682   -3.32310468591848    2.06851439562000
C        -0.20794698692804   -2.47403169315993    3.16159338047399
H        -0.72322586850734   -3.42143828562627    3.24966778318633
C        -0.75231885441059   -1.33516617892987    3.73263181662998
H        -1.69395622673532   -1.38252122286703    4.25944600614136
C        -0.06244414186688   -0.13823691358310    3.62384925545354
H        -0.46806129439482    0.76032700988809    4.06816328775559
C         1.13793545109156   -0.07176158280046    2.94885307811627
H         1.66328202584407    0.86600094284839    2.87567433413184
C         6.54381330322759   -1.75140205344477    3.39362212673822
C         6.18573293740266   -2.61689667505752    4.43193153374816
H         5.32162254432014   -3.25521720344843    4.30625632878167
C         6.90251380137041   -2.63569750825372    5.61116313634036
H         6.60151683020633   -3.30142955788141    6.40830031179715
C         7.99826290986701   -1.80531156987681    5.77912938094467
H         8.55478737422216   -1.81984266450745    6.70460013787127
C         8.37650987091709   -0.96101380562216    4.74797395760410
H         9.23635589237046   -0.31671454084570    4.86390929704465
C         7.66265928482540   -0.93220069329276    3.56738811539552
H         7.96250919717167   -0.27346658467764    2.76618448035697

