52
CSD_code = GEJWUQ | q = 1 | S = 0 | Stoichiometry = C22H19N7O3Re(1+) | MND = 6
C         8.85592316517036    4.47726135078839    6.43491256628135
C         9.23858220517786    3.22949524427811    5.77126128294297
C         9.93820996423706    2.11400519295237    6.19820400844429
H        10.31641251781743    2.03076379486523    7.20542645291926
C        10.14335659174688    1.09392481132073    5.28107218336247
H        10.68645429334393    0.21169345832534    5.58214988224283
C         9.66766651571801    1.19006612881841    3.98063995679323
H         9.85084545479947    0.38282760345165    3.28860822033099
C         8.96143123921630    2.30846209630908    3.55298246579133
H         8.60310191179154    2.38872756525105    2.53859496846757
C         8.75442340685315    3.31607472619394    4.46709634885805
C         8.03353386831927    4.64170674432471    4.32831855168376
C         8.75731855854613    6.59127325389059    3.11489346103731
C         9.33957920772390    7.19262030140224    1.90422166022303
C         9.71905553830220    6.65551004723674    0.69385506327448
H         9.59804474228215    5.60362854311250    0.49291184349498
C        10.26028104621556    7.52392436406597   -0.24936292350434
H        10.56444487237290    7.13943208365889   -1.21060199547484
C        10.41838175204155    8.87569056076357    0.02131513111572
H        10.84258538977517    9.52075629458346   -0.73233766589689
C        10.04261110087688    9.41648806850616    1.24594514366919
H        10.17542094127757   10.46928926916954    1.44344499239825
C         9.49964942645522    8.55600362207831    2.18084309332488
C         8.99188432276026    8.74361226198178    3.54107461842149
C         5.66372726692178    5.33081951383499    4.02375623472153
C         4.39118324163138    4.90042480202450    3.33427009983551
H         4.62884701545620    4.70653877857482    2.28360119902483
H         4.07837598521719    3.95098222339209    3.77754934684971
C         3.24642939906569    5.90224857127456    3.42228526246752
H         2.98164736891034    6.10670885290571    4.45800178321064
H         2.37003232474127    5.48947614219749    2.93000022376289
H         3.49530967309484    6.83671391423063    2.92205849702708
C         6.32793852138349    6.73540300345862    7.48003499295271
C         6.50760294110090    9.00878800016138    5.92921109193263
C         8.85429524159336    7.93240328815422    7.01457739853916
N         9.15501207622622    4.74946146533686    7.70178698221169
H         8.86540436509000    5.62021248581321    8.12026907213747
H         9.67911148747057    4.09270163959696    8.25247968663008
N         8.19903133578419    5.27601827975768    5.63676951109157
N         8.56647653322107    5.34341610382195    3.20027875447289
N         8.54263609588379    7.60899701761766    4.05173942303461
N         8.99904826296022    9.90544985746463    4.17353717694413
H         8.66013132413301    9.97545561195157    5.12289441895319
H         9.35959887589310   10.72916838396003    3.72160958700099
N         6.62011637401417    4.37676607065589    4.05824518327698
H         6.44531490075657    3.52845913510056    3.54109854033869
N         5.83201289544487    6.48496930702277    4.55961891774664
H         5.01442739854855    7.08178917588558    4.45558979878472
O         5.70656080930606    6.37747809011774    8.36986211719961
O         5.96074238732190   10.01602706286317    5.89708690470645
O         9.74836657265830    8.32543303498187    7.61991622793792
Re        7.38422129335193    7.26785280051429    5.92860225700862

