56
CSD_code = GEJXEB | q = 1 | S = 0 | Stoichiometry = C26H19N7O3Re(1+) | MND = 6
C         5.66814320553256    9.99528021495750    0.35815589398609
C         5.69543143894786   10.97876009229715   -0.72587757543788
C         4.73667844473520   11.80760666922679   -1.27634112930790
H         3.71857586821952   11.82497943026922   -0.91824279875007
C         5.12966708982522   12.63192630641922   -2.32483475043144
H         4.40592683643169   13.29267698112393   -2.77617154818812
C         6.43211094495821   12.61901267933207   -2.80331220237074
H         6.70025389158430   13.27113160029037   -3.62012488165757
C         7.39696402926478   11.78073496936416   -2.25288936815222
H         8.40876568188201   11.76057358931680   -2.62343724347811
C         7.00951582534218   10.96915563003756   -1.20949552170946
C         7.73356037604691    9.96144775422110   -0.41779002118707
C         9.72802404292140    8.67515455572963   -0.01272709430261
C        10.59897517381753    7.97779317932174   -1.03756282244247
C        11.47566351155861    8.49097816630556   -1.96587397993026
H        11.62593645687195    9.55434806417381   -2.06781091617462
C        12.14679589902073    7.58755722872817   -2.78171231118611
H        12.83908595733272    7.95590461195563   -3.52278348941336
C        11.94073023201727    6.22014640448748   -2.66177420340722
H        12.47824457668228    5.54513828020495   -3.30938023684481
C        11.05232812656482    5.70655828988636   -1.72863206335227
H        10.89677853149647    4.64184017354046   -1.64702127547859
C        10.38106967242343    6.60628544013140   -0.91869675082375
C         9.38291044106558    6.43900355254325    0.13961745550419
C        10.15303764790086    9.95224698265129    2.07487060814536
C        11.09777189562181   10.89147082158096    2.71526196905335
C        11.25902396238588   10.87067796655487    4.09917453323504
H        10.71477778799958   10.15134147168055    4.69488326432920
C        12.14245376003588   11.74319369792970    4.70713010786858
H        12.27155844332455   11.71361068460925    5.77777682234986
C        12.85886100655062   12.65103020048629    3.94401617850517
H        13.54495264802183   13.33349100680232    4.42067344868977
C        12.69323950927187   12.68440360887781    2.56873588322050
H        13.24401764075681   13.39683937122657    1.97421991948784
C        11.82219158522475   11.80488978185188    1.95252500154835
H        11.67812332401555   11.85303547354591    0.88183614759282
C         6.35818296334933    8.81271553289175    3.53994378285928
C         8.39365591167198    6.94933861187902    3.51367226680387
C         6.24856205638401    6.72879080510295    1.66882696969216
N         4.58237826561844    9.69982466128303    1.05378923149424
H         4.61197589642673    8.99464435676449    1.77690984328810
H         3.71198590884690   10.16728738750258    0.86258395415952
N         6.85409908173683    9.43758218984768    0.53698324352306
N         8.93581919349466    9.66466145766144   -0.67774464258523
N         9.00147014130931    7.58378264823209    0.63960399573415
N         8.92806105987721    5.25184491283449    0.53028823883140
H         8.24519977132419    5.18376467808108    1.26934080236358
H         9.25507766683350    4.41160010223544    0.08730756127104
N        10.59170484562784    9.36059532325208    0.94524152691269
H        11.49265621376627    9.64601042810800    0.59324508091645
N         8.99646959029108    9.69567168539446    2.58695777296103
H         8.82598895262558   10.24253530031183    3.42917289775442
O         5.69142322498519    9.27490791009458    4.35013355450670
O         8.94114894366279    6.29719399293570    4.27642896786889
O         5.47200896356084    5.95007332433640    1.33503254746664
Re        7.54558588295297    8.08684975958966    2.17519735468839

