55
CSD_code = GEJYOL | q = 0 | S = 0 | Stoichiometry = C30H20N2Se2Zn | MND = 4
Zn        3.94070382883854    6.60469970998838    5.41749993354490
Se        5.15070481839001    6.45248052102635    3.30494824982132
C         1.44626617321167    4.96205998666720    6.65952179174017
C         1.42415502386467    4.87533936411696    5.19446617998571
N         2.48571001210208    5.28882299458878    4.52880548644695
C         0.31802290960897    4.21070500294113    3.18295152349657
C         1.52461134777191    4.49693896702139    1.05657673806889
C         2.64695354293630    4.91693997713345    0.39043461942599
C         0.29771421053727    4.33922111132005    4.54115260103012
C         2.54755028637148    4.49298202270460    7.37165395006251
C         2.53614848627173    5.19023738430742    3.18404592059711
C         3.67538051753335    5.64240238958571    2.46393002042284
C         0.35787956680276    5.48634745900238    7.35314501844396
C         1.45070019957127    4.62448229477033    2.45290330638396
C         3.70701288082235    5.48563658864217    1.09033492623664
C         0.38433520395504    5.56412693076420    8.73248950456067
C         1.48590836176825    5.10222659000096    9.43469561631056
C         2.56247620949122    4.56084242237517    8.75370125787016
H        -0.54612707812429    4.01472861332482    5.12994103315586
H        -0.52225484229005    3.78881618622681    2.64987211388266
H         0.68895533715644    4.06207110654726    0.52874067919392
H         2.71404027134234    4.81575939040452   -0.68260253517382
H         4.58605075138903    5.82452136289473    0.56108778630912
H         3.37323517794924    4.03694543338617    6.84168410026400
H         3.42153458867825    4.19646919091758    9.29583385674541
H         1.50280393073513    5.16403295460084   10.51210829063938
H        -0.45716482379302    5.98622755833513    9.26182911992218
H        -0.49649151069141    5.85903523883345    6.80540361870558
Se        5.15070240029297    6.75691783120814    7.53005187709231
C         1.44626541439648    8.24733944890954    4.17547820875798
C         1.42415454350084    8.33406077925603    5.64053377066623
N         2.48570905966899    7.92057620337299    6.30619471479643
C         0.31802267802946    8.99869665211137    7.65204810001375
C         1.52461049460870    8.71246235497200    9.77842315583042
C         2.64695243512469    8.29246113862287   10.44456557426729
C         0.29771419087576    8.87018037603254    6.29384704450529
C         2.54754981586658    8.71641601678073    3.46334556206738
C         2.53614755256473    8.01916263650846    7.65095423852047
C         3.67537945772613    7.56699792377500    8.37107045079228
C         0.35787813545936    7.72305275787870    3.48185547386321
C         1.45069953253360    8.58491862582400    8.38209659628328
C         3.70701165046131    7.72376399925480    9.74466553540626
C         0.38433310921184    7.64527315727459    2.10251097420587
C         1.48590658648280    8.10717200260756    1.40030440455089
C         2.56247553645521    8.64855457333776    2.08129833550025
H        -0.54612668082750    9.19467356068067    5.70505837193214
H        -0.52225486737054    9.42058617388185    8.18512727653890
H         0.68895460164807    9.14733078124904   10.30625894316228
H         2.71403906775905    8.39364205673902   11.51760270656724
H         4.58604932756742    7.38487911333631   10.27391290436866
H         3.37323522873535    9.17245211590396    3.99331500759201
H         3.42153425559631    9.01292638536663    1.53916532859331
H         1.50280187853225    8.04536512997318    0.32289175780397
H        -0.45716766314309    7.22317353687149    1.57317174330769
H        -0.49649312395590    7.35036591584163    4.02959723491895

