56
CSD_code = GEJYEC | q = 1 | S = 0 | Stoichiometry = C26H19N7O3Re(1+) | MND = 6
C         6.97764647285701   25.20028922772078    4.72467515707537
C         7.89515847762824   25.09215020434819    5.86045590818906
C         7.91453470222681   25.68224952626786    7.11251540238894
H         7.14414636212976   26.36781022625029    7.43034175896689
C         8.96828292341505   25.36450784368796    7.95648949243634
H         9.01385388838481   25.80961236195288    8.93821584905232
C         9.96899442521207   24.48860629816512    7.55866959770256
H        10.77950693121858   24.26789119224781    8.23579648344182
C         9.94759860415067   23.89295582904165    6.30283688489278
H        10.73226109800775   23.22245988396878    5.98870102425594
C         8.89825295571263   24.20685657242219    5.46964673037856
C         8.58106155147908   23.74019643893692    4.06302863984536
C         9.71012351823478   24.34105106112096    2.02284475112207
C        10.96044513091295   24.56917529411235    1.28054564687141
C        12.28428369624224   24.40168121239683    1.62235195137073
H        12.56168589833567   24.02501353826860    2.59323364590907
C        13.23849780007362   24.73690017875886    0.66641768662005
H        14.28544157449464   24.61462807833904    0.89729548526974
C        12.87136572933121   25.22741671069580   -0.57864011617731
H        13.63719542197738   25.47930077502541   -1.29567561589783
C        11.53525273896852   25.40292899479152   -0.92116196206127
H        11.26515898885911   25.78917604720909   -1.89220883859751
C        10.58696984153623   25.06441829236166    0.02512408630126
C         9.12348431824953   25.10063641080113    0.03589411702081
C         7.85825276557979   21.58835246174121    3.05197443660305
C         8.01153000178131   20.12065694250495    3.15215254143491
C         8.33290591093138   19.37700602772129    2.01880680572320
H         8.50528713551044   19.87533831626283    1.07475456271393
C         8.46641976036498   18.00348566374419    2.10388226520190
H         8.72533868283102   17.43601624556448    1.22352509604041
C         8.26510591312129   17.35926770599604    3.31361591663330
H         8.36174417621887   16.28672621643102    3.37621766904051
C         7.93635106533394   18.09264633622508    4.44227308263046
H         7.77070284116247   17.59231819123966    5.38378995018275
C         7.81689031904603   19.46827800004965    4.36775122940850
H         7.53605103231658   20.03198049798733    5.24601278476942
C         4.76451842502762   23.67672400111407    2.40879507673144
C         5.96105478057471   23.70871603314430   -0.07625388127811
C         6.00473697307300   26.04849403886909    1.46980921305652
N         5.89102297724826   25.96703317517091    4.73694891410512
H         5.28444974142322   26.00765065908761    3.93215724768451
H         5.66993561986938   26.52188042269324    5.54471108300504
N         7.35769093983185   24.46379614168882    3.71480829479429
N         9.72438021272426   23.96941770984089    3.23193711059480
N         8.63579007599886   24.65355464181388    1.18140939486131
N         8.39312248605165   25.54074694691374   -0.97549749589427
H         7.38538068102619   25.56973700566568   -0.90680149543010
H         8.83499858365157   25.87010120394054   -1.81750502729821
N         8.33941456381816   22.29899354302334    4.09515206544649
H         8.89950248329929   21.79597876846471    4.76723798581181
N         7.27080405769924   22.14174675852104    2.04556325312348
H         6.94568358857830   21.45040890413538    1.37163862012211
O         3.75930603186950   23.35639060542442    2.84793944672721
O         5.65420057365384   23.37953267600963   -1.13084647361585
O         5.74225524398707   27.15650132955476    1.31397152443428
Re        6.51936930676007   24.19091063056352    1.72787503626051

