60
CSD_code = GEJZOM | q = 0 | S = 0 | Stoichiometry = C21H27N5NiO6 | MND = 6
Ni        5.60690045108921    2.33400565537633    2.63708384495952
O         3.46125719479523    1.98658494591848    1.95256766533677
O         3.92736420058428    3.98208534399077    2.51564444138832
O         1.92011193070199    3.47014040341003    1.97328167671587
O         7.75291220290511    2.00213656565869    3.31869320963242
O         9.28536709899089    3.49482325467759    3.30295453646292
O         7.27752299491613    3.99423524403995    2.75122805726907
N         5.60725144702252    0.01194201412356    2.64318159975144
N         6.14611923703210    2.40039191533377    0.89713514806756
N         5.06648944128930    2.41049052028395    4.37949845410676
N         3.07268043016409    3.15995582696787    2.14500799191487
N         8.13567668492598    3.17761060661016    3.12644293685715
C         6.44877733658535   -0.66224953418882    3.42176541280788
H         7.12570280457664   -0.06479265379418    4.01487921303439
C         4.76826478189670   -0.67092021981209    1.87401481778644
H         4.08983132855342   -0.08372190644323    1.27235783813039
C         6.49337054364229   -2.05001680761605    3.46974098972000
C         5.60736564959887   -2.75181333021561    2.65978704600702
H         5.60905676182935   -3.83357882781660    2.66871975484312
C         7.45219612224101   -2.76096337071299    4.37101398179443
H         8.19611717201609   -2.07105523885966    4.75937868717162
H         7.95662002563015   -3.56407932559803    3.83715089593418
H         6.91869709479983   -3.20400008620707    5.21193899458580
C         4.72369473199404   -2.06217605782293    1.84249412850053
C         3.76047959558926   -2.76777473714954    0.94157130959081
H         3.65275588570776   -3.81156589915331    1.22627107061511
H         4.11557756226508   -2.72728650832220   -0.08813306329047
H         2.78643279231684   -2.28515999659052    0.97505958855113
C         6.94090615160722    1.49613120167601    0.32818643294377
H         7.22164330394868    0.64119198260383    0.92699425289461
C         5.82167217540197    3.49260290996080    0.21619552407860
H         5.21910543545722    4.23433541959323    0.72741746642023
C         7.42847941612563    1.63359618821981   -0.96320872661118
C         6.25549462594851    3.72727535582405   -1.08574804308717
C         7.06530351611601    2.77061715559836   -1.67744341029118
H         7.42912314517688    2.91194861120794   -2.68531950719000
C         8.32237975032650    0.59532328396453   -1.56229176183302
H         8.50007789216777   -0.21511134561278   -0.86104044167782
H         9.27946128895505    1.03713132012476   -1.83464495959894
H         7.87423950844648    0.18706229238153   -2.46698585402051
C         5.85581510396082    4.98534648756192   -1.78496312764751
H         6.24168410679507    5.00734693504895   -2.80062224975940
H         6.24003041964952    5.84783586727981   -1.24304833199745
H         4.77125132574313    5.07209258628670   -1.81570711452233
C         4.27371064269428    1.51054259217682    4.95159235999816
H         3.99425098603693    0.64979027953959    4.36031556222613
C         5.39232100674492    3.50765655577074    5.05788706715088
H         5.99553924293017    4.24455377578715    4.54115214082304
C         3.78348996338072    1.65330427815994    6.24474348839629
C         4.96046096837442    3.74553699050208    6.35649359656399
C         2.87299649686451    0.61678434285680    6.82170200584889
H         2.87157358925942    0.66271806735770    7.90756440953255
H         3.17287853817427   -0.37945508386665    6.50557278165209
H         1.85524516688884    0.78700477870536    6.47111332314569
C         5.34240032417476    5.00161868678875    7.06948096024532
H         6.17607423141680    5.48976515161204    6.57310061792942
H         5.61342569745964    4.79023347842058    8.10183243706300
H         4.49840590334458    5.69097714811389    7.07767001864204
C         4.14680185064562    2.78983685345033    6.95277862649905
H         3.78746472213941    2.93935805682882    7.96110022793523

