31
CSD_code = GEKCAA | q = 0 | S = 0 | Stoichiometry = C10H15OReS4 | MND = 8
Re        1.12704533464428   -2.31909286887757   11.18902853231372
S         1.33149985027418    0.09458112395027   11.27911139492519
S         3.34286969022380    0.42786793683802   11.29209698840771
S         3.87429613773154   -0.71089851171558    9.64879816456034
S         3.37287746805628   -2.57919403257743   10.32743672540215
O         1.51459071679643   -2.57498393741810   12.78516081830028
C         0.70243571407785   -2.62134994865290    8.55509264108648
C         0.45105392750727   -3.74083795643715    9.44298216225807
C        -0.62966448930341   -3.38250300761487   10.31605198063718
C        -0.90689108048015   -1.99012417934002   10.08199677670581
C        -0.12611298246015   -1.56359746242832    8.93707393222576
C         1.63725727977453   -2.68495695002417    7.39797431150617
C         0.97190337310077   -5.11952873900416    9.19610764205914
C        -1.47319063742180   -4.32766971441535   11.11862207941652
C        -2.06824392117275   -1.21849883958781   10.62059186823901
C        -0.26237923341148   -0.22422286140100    8.30272186669181
H         2.63193228869544   -2.98956024262434    7.72515089738260
H         1.72366381451826   -1.72090454483862    6.90482172671675
H         1.28290882472129   -3.42179346079089    6.67638962286653
H         2.03241986359680   -5.08819227480202    8.95307104150857
H         0.44182839214007   -5.57165607604527    8.35596749429658
H         0.83747137415277   -5.75283320995027   10.06960774863925
H        -1.90884252536656   -3.82968796233230   11.98231893569210
H        -0.88845898013342   -5.17484178865126   11.47048703975672
H        -2.28513721695625   -4.70575628203555   10.49489897848902
H        -1.80827665080870   -0.16723965774329   10.72904326464157
H        -2.37705300503366   -1.59989621197767   11.59082265839329
H        -2.91387260268687   -1.29463189733874    9.93469998081300
H         0.37428950677838   -0.13523820374834    7.42706362340119
H         0.01666492244292    0.55804224826514    9.01223195881579
H        -1.29738515398973   -0.05360048665085    8.00767714384899

