59
CSD_code = GEKCAC | q = 1 | S = 0 | Stoichiometry = C24H28Cl2N4Rh(1+) | MND = 6
Rh       12.59868789978026   10.42373454789402    5.69954574031032
Cl       10.47706715633610   11.16603770378492    5.06164048714218
Cl       14.71873310567011    9.68113734562495    6.34253655913929
N        11.77084661898814    8.75264530965225    6.50202017816008
C        12.19539941628864    8.26239624643687    7.67026283270975
H        13.01370143246458    8.77808930280022    8.15485010893901
C        11.65269430151923    7.13245463342656    8.24903143823970
H        12.04144626710254    6.78443607173894    9.19303682963315
C        10.61554346014362    6.45314524527731    7.61654814939874
C        10.18358977301703    6.97532463432902    6.39893497198110
H         9.38150315291194    6.50220362689770    5.85456952902983
C        10.77749892756827    8.10745470423143    5.88115146068279
H        10.42638443912155    8.52329274047687    4.94623885590176
C        10.00500789277354    5.22579608334129    8.19459835060051
H        10.27768913942847    5.10427517050797    9.23895682425429
H         8.92135414194036    5.25757441561010    8.10585495188670
H        10.35249456502104    4.35054984903608    7.64559802163222
N        12.80120097216679    9.46694775263331    3.92022294226076
C        13.35030251195178    8.25065491463453    3.84832530539728
H        13.70045779385584    7.81081649066915    4.77261171911859
C        13.50700340195460    7.57001999452016    2.65766320929573
H        13.96352792497904    6.59277159010366    2.66421925295834
C        13.08248799371357    8.14508815085678    1.46297640374411
C        12.51025403600746    9.41212474813188    1.55345925943455
H        12.15666470935992    9.91745075973380    0.66850567425262
C        12.39010760097192   10.03189778335766    2.78021632911539
H        11.92864849765868   11.00783568479035    2.85081629263793
C        13.21215073822199    7.43967543855404    0.15955658027073
H        13.97846087118836    6.67075425616114    0.20362204019159
H        13.44648953872421    8.13951268339987   -0.63882983319784
H        12.26505183563890    6.96036501388806   -0.09003239460893
N        13.42532465494576   12.09497839625782    4.89569455018488
C        14.56988517369935   12.03730153772129    4.20704682733394
H        15.04302660044921   11.06878457372031    4.11514723788055
C        15.16462073594324   13.15142549640311    3.65138470126631
H        16.09257119505117   13.04218638679973    3.11246596073707
C        14.57133764287707   14.40400579129023    3.79117685783742
C        13.37832991417366   14.44824580396659    4.50773997405562
H        12.86101187109207   15.38329782410801    4.65430997592982
C        12.84560694050040   13.29080191964846    5.03848903237485
H        11.90956305359373   13.32506261760740    5.57980330814394
C        15.17205489673681   15.62401337584259    3.18791365313642
H        14.85105619733264   15.71100658228306    2.14940030349751
H        14.85236272187143   16.51972531957061    3.71342754491380
H        16.25762451694736   15.56709694618775    3.19453453700035
N        12.39796467350516   11.37955393691379    7.47897084616786
C        13.41806345901954   12.05347339608877    8.01978213577763
H        14.35500224455189   12.05050028655019    7.47902530420432
C        13.32125733742152   12.71367733141183    9.22758257105845
H        14.18094808931328   13.23841618303664    9.61366544208545
C        12.12350665254602   12.69916451634617    9.93827757001648
C        11.06954538966897   11.99432502952876    9.36243297698380
H        10.11080672593513   11.94341302017375    9.85400262790520
C        11.24272693178454   11.35634139318458    8.15090292175752
H        10.41613400096765   10.82778813822657    7.69506151548850
C        11.98613101655816   13.38285239084433   11.25237908912974
H        10.95203832098256   13.65447579624400   11.44651763926073
H        12.31172696691632   12.71057437673827   12.04686766868025
H        12.60952195923773   14.27224874086899   11.29608915666437

