63
CSD_code = GEKDEI | q = 1 | S = 0 | Stoichiometry = C30H28AuN4(1+) | MND = 2
Au        9.63669966162818    2.58712011838388   11.78944665422124
C         9.88843699620558    0.58984649967860   11.55230015760844
C         9.41436978946098    4.59908727939578   11.94935354188533
N         9.11534965555633   -0.19077730789885   10.77377385200248
N         8.81639471640606    5.38604999518801   11.03712862117850
N        10.88093538669837   -0.17987104200118   12.03034304740477
N         9.90626216097935    5.40254009233032   12.91026781122017
C         8.51413206253707    7.88865377171864   10.79680309727947
H         7.99008320357610    7.88746180595055    9.85539078503538
C        10.60525156780235    4.98359876068889   14.09193154987304
H        10.62252781528230    3.89581544948435   14.13061238764034
H        10.09976372899834    5.36578645723409   14.98004944771940
H        11.62921149247219    5.36196031274197   14.08085496091548
C        11.10570726884749   -3.75428290417676   11.09365431876690
H        11.66812933487364   -4.66607036080321   11.21666855950109
C         7.95977833874609    0.26999773420699   10.04988875883595
H         7.34353293402962    0.87875388298740   10.71995980370492
H         7.37135363713803   -0.60543553436984    9.75921927245374
C        11.51706146867376   -2.61197625487616   11.74973160606705
H        12.38913023275213   -2.60971700712030   12.38321740869923
C         9.21614153375859   -2.62650052901501   10.07211272997136
H         8.35252254867965   -2.64260528670525    9.42690604753421
C         8.93574137491196    6.71042144140338   11.39674069048176
C         9.92554275780261    7.90759852808145   13.27143995364289
H        10.46157867992564    7.91984423471322   14.20653098541488
C         9.61830256862032   -1.47322519174481   10.73221627843727
C         9.00678610496922    5.25145791766934    8.60820181385939
C         9.63456956213353    6.72085793086610   12.61339013444984
C         9.49846347964787    9.07433409043195   12.67037540417412
H         9.70412390272686   10.01949061802826   13.14723107345109
C        10.32642206487545    4.82375385848388    8.55029512888028
H        10.74393847544978    4.26753715472002    9.37887567827100
C         8.80849818836043    9.06470350442305   11.45633139017167
H         8.49991565196041   10.00329985629570   11.02407723378716
C        10.75664485345595   -1.46758241775720   11.55404922276285
C         9.55475452804500    0.99476954042787    8.21417880910840
H        10.32121559911201    0.35648942887050    8.62961185303210
C        11.93090667111713    0.24062293915871   12.91403896191143
H        11.82437697789802    1.30526029944722   13.11409894103840
H        12.90372018127216    0.05688842323733   12.45510938683739
H        11.87658161119756   -0.31116491094808   13.85416806242239
C         8.30655775814926    1.07291352729335    8.81413647577664
C         8.17114800654976    4.94190056719527    9.82702652353706
H         7.19472670631357    5.42864420237727    9.75008364180969
H         8.02133666203939    3.86000103622346    9.90331400708949
C        10.56372806955171    5.80284532333358    6.37520929522285
H        11.16920965743823    6.01901701891583    5.50851579947170
C        11.10226357709066    5.09981032510242    7.43991189295914
H        12.12799659091821    4.76550906023739    7.40455679070774
C         8.85341311652256    2.53243160357523    6.50977787426408
H         9.06523309631338    3.09628473246915    5.61522804797319
C         8.47267717379365    5.95571852840320    7.53964106306321
H         7.44485677365464    6.28805357566541    7.57373501504105
C         9.24744344472923    6.22750276911319    6.42523956207346
H         8.82291573618618    6.77469321521979    5.59749150365544
C         9.97877141376958   -3.75973800612732   10.26925301014064
H         9.69911197287467   -4.67525412223611    9.77270170476712
C         9.82682722885288    1.72526663927974    7.06976400897840
H        10.80088764185180    1.65494278571332    6.61090385646137
C         7.33365277212902    1.88943816849293    8.24936659531757
H         6.35594221172656    1.94705012508202    8.70674765929661
C         7.60457502564930    2.61241261582835    7.10201082595908
H         6.83886659544070    3.23636313013952    6.66810942469223

