64
CSD_code = GEKFEI | q = 0 | S = 0 | Stoichiometry = C21H33BN6P2Ru | MND = 6
Ru        3.49665925926669    3.65568623381837    2.27689563980817
P         4.78223803132322    1.74735922815955    2.46750460055409
P         3.45664051410493    4.42944067474412    4.45022498493078
N         2.38221106836491    5.29901846205390    1.75952766460707
N         2.81123491638807    6.10699773214830    0.78787706037448
N         5.27085797639307    4.84581808552518    1.87813463630661
N         5.25442869903063    5.66211719782177    0.82857334961735
N         3.42233616688496    3.32136385394712    0.24645313146777
N         3.73304383485957    4.31681656525063   -0.58718167004605
C         1.22451684684673    5.77373801801840    2.19571615015427
H         0.66269787418873    5.25943631965180    2.95088312391189
C         0.89544471204434    6.93446515721385    1.49376229639887
H         0.02678981639548    7.54848208168643    1.61646571349156
C         1.93320968590306    7.10742513341852    0.60520833486005
H         2.09927384030393    7.86266861118851   -0.13615398260668
C         6.45344610487591    4.97166362919106    2.46078584462972
H         6.70380993284102    4.40790307939996    3.33996582105817
C         7.23130355794111    5.90006981047293    1.76723082914138
H         8.22965028894663    6.21676000847188    1.99097688717115
C         6.42335978082200    6.31492419837299    0.73071597235198
H         6.60330727884982    7.02000969610593   -0.05517388492068
C         3.09863723836576    2.26898246667973   -0.49148514079556
H         2.78333664524538    1.34671352077289   -0.04315065869233
C         3.20831456452137    2.58667425054833   -1.84581909142347
H         3.01583712281462    1.94940307662725   -2.68450168391461
C         3.61358453001971    3.90272724641247   -1.85910007251997
H         3.81803224947789    4.56168745219222   -2.67854529852790
C         6.00859139271894    1.61571151806170    1.09358872904291
H         6.63784364079754    2.50490602504822    1.09333705564201
H         5.48819952897692    1.55604508570215    0.13954985758182
H         6.63433295546873    0.73257315485626    1.21941328916112
C         4.01136267118308    0.07659072969295    2.34709608626789
H         4.75682820530373   -0.65976647228641    2.04764180454133
H         3.19383127850293    0.08673294657495    1.63230380406691
H         3.60069527738444   -0.19395345619247    3.31688966359639
C         5.93699778953662    1.34284256753461    3.85142184679150
H         5.37310501203728    1.22346862152572    4.77323269102699
H         6.66657199150611    2.13885425546462    3.97955910510318
H         6.46056421456750    0.41298752772028    3.63000363155240
C         4.51472475333224    3.76818224328638    5.80908784196966
H         5.54981534009520    3.71674816380131    5.48147015170708
H         4.17439142108943    2.76880750960790    6.07265238896180
H         4.44622749098380    4.41386421963347    6.68435911489079
C         3.96118671990415    6.20079373634865    4.56827501685082
H         3.35849029482404    6.79251587865895    3.88026537180030
H         5.00869644328013    6.30322452665716    4.29097416045981
H         3.81704845689547    6.57109274028395    5.58300684803274
C         1.87923415871465    4.55028808063845    5.40194222465121
H         2.09154831190437    4.70685890940840    6.45891251622278
H         1.30132837859466    3.63814757224937    5.27391720496161
H         1.29774022611221    5.39049138796490    5.02985144113928
C         1.77243688277174    2.57327217721798    2.55453015634998
C         0.69357149788688    2.62385237594163    1.66856663831000
H         0.74120902477482    3.25764956410922    0.78776621133571
C        -0.46307593886693    1.88691205588468    1.86733198485066
H        -1.27451835943958    1.95690810915722    1.15369730977294
C        -0.58781013406393    1.06318637764736    2.97162714986912
H        -1.48928797075941    0.48699391830633    3.12873857302737
C         0.46018255914693    0.99020792861123    3.87301089811139
H         0.37892990429189    0.35236386941598    4.74498579269075
C         1.60821886708756    1.73304302396719    3.65900920326756
H         2.41922701453649    1.66101618667296    4.38296126415962
B         4.02365672374349    5.73522742043038   -0.07553908922345
H         4.18130143841662    6.49980773059689   -0.96512849583728

