44
CSD_code = GEKGUY | q = 0 | S = 0 | Stoichiometry = C16H25BrNbP | MND = 12
Nb        3.97128709561169    0.33073608534859    1.24197153802322
Br        4.63892272779689    0.36244794665906   -1.29507898961679
P         2.15066620335016   -1.34554902412914    0.73395875577616
C         5.25668948458905   -1.83367309459384    1.74381436633835
C         4.79210948738479   -1.13910965751005    2.89875575675267
C         5.48268612610106    0.09507826497370    2.95151585335542
C         6.35258270151859    0.16437561713855    1.82932964152729
C         6.24003787135525   -1.04324447401419    1.12204523704702
C         2.03116351208412    1.57709756106176    2.05029079050221
C         2.38239295951345    1.97811709733775    0.72428356696724
C         3.63093146487762    2.66218731253055    0.80787382234802
C         4.05236689841232    2.62890535746296    2.14281770555469
C         3.06775536655079    1.96562259110752    2.90583917874770
C         1.76539895260976   -2.54828363927927    2.11521469487396
C         0.70578506413444   -3.59275546006879    1.77660779696726
C         1.31281006188197   -1.72085634561596    3.31767920915129
C         1.94952623778497   -2.35467235265602   -0.82745240170751
C         3.22503628024837   -3.14053543115709   -1.10803490596053
C         1.57942819239307   -1.43065202885972   -1.98438021041174
H         5.03736666261985   -2.86492831309961    1.49274100295814
H         4.24401948266092   -1.58356613740284    3.71737097836120
H         5.52686277604663    0.74723687566266    3.81595829297051
H         7.09216328424521    0.93289362340241    1.64567138886612
H         6.80656191644831   -1.31842983804142    0.24225533076206
H         1.06806954482589    1.18834928210108    2.35345998323108
H         1.69423333210287    2.04366728185430   -0.11520544050798
H         4.09964032178949    3.21176887811517    0.00116707546882
H         4.93203720733833    3.12015720148457    2.53832239955465
H         3.07569074468471    1.84699264172911    3.98065709204022
H         2.70303487721773   -3.05821152783407    2.36371174891223
H         1.07711725133409   -4.33325819032495    1.07308838181650
H        -0.18473901067707   -3.12198847557915    1.36232850632532
H         0.41625814893449   -4.11750711488934    2.68607138636464
H         1.99860266413763   -0.89488224329652    3.50411768132680
H         1.26532488726202   -2.33959709051077    4.21203661376343
H         0.32063720085804   -1.31054120949977    3.13521757356555
H         1.11712465269929   -3.04800459150486   -0.66356700330301
H         3.44202581926502   -3.83092734241396   -0.29257320814917
H         4.06693067201505   -2.46042889099053   -1.23077388846749
H         3.11905388171296   -3.71682533227197   -2.02465576201977
H         0.68017098499779   -0.86141337282485   -1.74936640450608
H         1.38715414499243   -2.02133183172292   -2.87751521532950
H         2.38619447619479   -0.73803179470862   -2.20598914170969
H         0.88448738810030   -0.76122881316613    0.67581922146957

