55
CSD_code = GEKPER | q = 0 | S = 0 | Stoichiometry = C21H28FNO2PRh | MND = 8
Rh        2.46693001043770    0.66285194708482    3.32492886160491
P         3.19824990271538    2.11438994863614    1.73739942737908
F         7.15657595141797    2.41975171322279    8.05772994411944
O         2.16990723485093   -1.12965584341801    1.14188809188467
O         4.14881522319340   -1.29992535092874    2.12688619093307
N         4.91969347877551   -0.78073721731120    3.14249459094739
C         1.26323012977599   -0.44287825892565    4.74749110025188
C         1.60720493802147    0.76579595725695    5.47495895824072
C         1.06322771990940    1.85293582240346    4.77590935388029
C         0.28961454563879    1.32929401323080    3.65873546366292
C         0.32251930919946   -0.07822161294261    3.71775308174591
C         1.44598794197790   -1.83461502818179    5.28323628371306
C         2.26991133066480    0.79823477005724    6.81714666958940
C         1.02023758311322    3.27303827775914    5.25488963422206
C        -0.65885748108137    2.14302816391815    2.82804554696318
C        -0.49741931079988   -1.02895028907319    2.90067647162239
C         4.90880355016088    1.91700005710301    1.11006787537374
C         3.16964009287452    3.93062447444425    2.03823750662093
C         2.24268389443939    2.02703095471703    0.17613423532162
C         4.35429785485164    0.14265720555767    3.81169321576412
C         2.91069639508918   -0.75464104707434    2.01275188619428
C         5.10483689644285    0.73983330927345    4.91822175176253
C         5.99759338511353   -0.02785217740979    5.66828911954927
C         6.68766296899082    0.53132372569084    6.72577458458519
C         6.48525304520133    1.86763206070826    7.02409835332529
C         5.61294695769161    2.65662824174082    6.29512158843488
C         4.92100109184970    2.08285863705584    5.24671448028785
H         2.39376263475306   -1.93104637252888    5.80947547574217
H         1.42455952079937   -2.56712182196432    4.47898325160203
H         0.64165688156129   -2.06697085595463    5.98514161466941
H         2.73137615903721    1.76350972178606    7.01210365067471
H         3.03583061520167    0.03013427041046    6.90383021968552
H         1.51974048436155    0.61650406982725    7.58976868815412
H         1.92182659317859    3.53329128003746    5.80626429983254
H         0.16690739831993    3.40620659255110    5.92352752852402
H         0.90663064382363    3.97153741867174    4.42842750747332
H        -0.25759748905974    3.13255456167031    2.61495070247942
H        -1.59881010709277    2.27425290728880    3.36924771415063
H        -0.87319564557882    1.64603524588587    1.88454222147687
H        -0.72497786775012   -1.91906377505236    3.48395175227204
H         0.03080528649648   -1.33880019700961    1.99774490609014
H        -1.43309002736597   -0.55858439652306    2.60554066537930
H         5.03199180145807    0.90981201756396    0.71552546635452
H         5.61724224215106    2.05619404168612    1.92562538499607
H         5.10718120292156    2.64223285712639    0.32155491502163
H         2.16620113401796    4.23770359035774    2.32509560089631
H         3.46051404380975    4.45935157161620    1.13146383583463
H         3.85907920516382    4.18782784487698    2.83960065214799
H         1.22145523220349    2.35534214949494    0.36159179833589
H         2.21581246775175    0.99228871029390   -0.16154348824995
H         2.69755294933691    2.65583971823488   -0.58840249937706
H         6.13794776785083   -1.06417721221402    5.40569280601974
H         7.37746999604319   -0.04943738172845    7.31777232237583
H         5.48547249445702    3.69577848403525    6.55706927865397
H         4.22630974163883    2.67477250497905    4.66357946079721

