41
CSD_code = GEKPOB | q = 0 | S = 0 | Stoichiometry = C18H19ClIrNO | MND = 8
Ir        0.12762121193959    7.71428853364305    8.74871241581981
Cl        0.03002767053537   15.27515861046938    8.19324474492636
C        -1.96198263447083    7.78791846903650    9.68520265514766
C        -1.41866217421022    6.44076188655513    9.60942714523370
C        -1.39448332108074    6.05146062117548    8.22245846175632
C        -1.73973192265750    7.19312717502837    7.46744129505391
C        -2.12310880413087    8.24981444789292    8.36507021326175
C         0.84895146998415    9.42093026223951    7.81337314106023
N         1.24239315920127    8.50045103085399    7.14792720057826
C         1.57337777345411    7.51520732753367    9.89223759499412
O         2.47185869756156    7.40699678135385   10.61511218455474
C        -2.44421582703283    8.45284628993425   10.93705913547501
C        -1.38206207381343    5.48527786294088   10.76724701022576
C        -1.18623614970210    4.66402771793839    7.70128903219520
C         0.68040925333164   10.84002458562774    7.92713026278298
C         0.85180292478161   11.64253102513683    6.79656411530733
C         0.65020215042351   13.00546262428077    6.87890826929362
C         0.28176784758015   13.57135163258032    8.09221034107758
C         0.11385315287799   12.78595805962926    9.22490508136040
C         0.30897063561516   11.42235134960886    9.13935562392309
C        -2.75810097709984    9.53881197904965    7.94282302121736
C        -1.92288529599208    7.24129407442025    5.98305842464327
H         1.14070470457342   11.18575822329905    5.86259290976203
H         0.77859593300543   13.63151351551867    6.00996808925484
H        -0.16924871469017   13.24394818082161   10.15956807933509
H         0.18422232695156   10.79333866929109   10.00898923190574
H        -2.47429912803793    9.53454626754469   10.82291174260590
H        -1.80310114622686    8.21363692643817   11.78265995716542
H        -3.45413700690018    8.11010213376140   11.17203604714655
H        -1.08815474553347    5.98860513913864   11.68537094344889
H        -0.68310214621412    4.67256985968491   10.58469106185501
H        -2.37444974116278    5.05528396705002   10.91650268576268
H        -0.74598205340889    4.68008730255393    6.70668836845553
H        -2.14399744253858    4.14209184245457    7.64005428147264
H        -0.53061992944756    4.09352438661694    8.35496790742711
H        -1.28499824910133    6.51276034765411    5.48759020874374
H        -1.68135215445814    8.22729371134005    5.58844332324169
H        -2.96075602841510    7.01961667231878    5.72547710081317
H        -2.31080128571233    9.91908570886721    7.02501260582482
H        -2.65308706755926   10.30254131338899    8.71163599419593
H        -3.82360289221980    9.38764348532982    7.75748209168999

