65
CSD_code = GEKSEV | q = 0 | S = 0 | Stoichiometry = C25H38CoP | MND = 8
Co       -0.63022954720544    4.06226067112895    6.21054984400313
P         0.55871984376427    2.75012246062992    7.61187442957176
C        -2.26307769892566    3.13318562517773    7.09339907477264
C        -2.15665910589456    4.41862135833425    7.72666802435128
H        -2.11208850181998    4.58445780194532    8.79065652171975
C        -2.33070139343002    5.39483018410964    6.75398777492488
H        -2.38543969675058    6.45934567686408    6.90968822849599
C        -2.51237651399191    4.73155698279079    5.51043624854217
H        -2.77234583001711    5.23497781926484    4.59424267593571
C        -2.56101934565788    3.33326631510519    5.73778492764799
H        -2.83239551394745    2.57666024254800    5.01966625597945
C        -2.09476387259030    1.83686438396705    7.82198294322960
H        -2.11113189570961    1.01212412485608    7.10804338457075
H        -2.92129351384530    1.68350817752866    8.52601439825023
C        -0.77261176137924    1.88440902034245    8.59557080960423
H        -0.45533816806525    0.89150445085632    8.92067169178457
H        -0.92950022297226    2.49456371451530    9.48625275055353
C         1.57648089126919    3.51967859521754    9.02869475007436
C         2.98733487780446    3.84041671455204    8.53499267197730
H         3.61709096884016    2.95519587731887    8.54458670665954
H         3.45013803051589    4.57795545108226    9.19017519107368
H         2.95693833157213    4.24531641104062    7.52742474165623
C         1.67670478735928    2.68005953747826   10.30384653570048
H         2.09088146703363    1.69570949258781   10.11477017344672
H         0.71475837599280    2.55942748977059   10.79401441714765
H         2.33689858088197    3.19252418337080   11.00338604278200
C         0.87188552409356    4.83767033561597    9.36059865497244
H        -0.09023397224012    4.66094226819997    9.83482774379910
H         0.70789949270126    5.41861186617392    8.45398915603926
H         1.47597852356835    5.42655385870700   10.04952836887587
C         1.53486608025526    1.30089355949740    6.86919509192485
C         2.65258890603352    1.86804988888576    5.99304808892773
H         3.52256751158910    2.14564974390350    6.57841922874380
H         2.29429839510115    2.74547517820361    5.46048244009696
H         2.97562128422270    1.11941790889368    5.27091207529407
C         2.12231536668114    0.28803590694213    7.84851402622936
H         1.37913445352289   -0.09036523617330    8.54663146989190
H         2.95173879248429    0.70945582314583    8.40992111495223
H         2.50618604525379   -0.56176138860911    7.28375650365800
C         0.51458603292101    0.59585107330069    5.97029938832726
H        -0.20727855872709    0.03833854708079    6.56204634061499
H         1.01449330208156   -0.11069326901742    5.30877099214571
H        -0.01372128120065    1.32920821602526    5.35878551459367
C         0.63141731732236    5.30107939541997    5.41066815730088
C         0.23763235939207    4.32751498616026    4.46128410551176
C         1.91041543689455    6.01249160153548    5.65407639499628
H         2.68035533134429    5.93742574427406    4.89645795969513
H         2.30054904184239    6.11975382412599    6.65595217493237
C         0.65111311785290    6.78643668693814    5.32778235140242
H         0.21896069777176    7.38067761911698    6.12048366176799
H         0.56343950318681    7.24070950629366    4.34985636529119
C         0.93080987636855    3.66590423980816    3.33291237316130
C         2.28432784956303    3.58676585916553    2.72526196322543
H         3.15051405163371    3.61518195559365    3.37078779742286
H         2.44462931191330    4.05914791756994    1.76585625788447
C         1.39335266329010    2.36739060983951    2.78624690498067
H         0.93816517003237    2.02787618136168    1.86553010237069
H         1.66295740081201    1.56518474691408    3.45233845754224
C        -0.28306058052558    4.47156524758205    3.08169250096147
C        -0.68487266469074    5.54009956552233    2.13295908919969
H        -0.07851790329666    5.71037904598056    1.25367456716477
H        -1.13567855234061    6.43902398056541    2.52891473173204
C        -1.47387630796052    4.25448442060226    2.22468809515505
H        -2.46363421543787    4.28219314611528    2.65380813054195
H        -1.38219837614240    3.54533667635788    1.41266044421612

