39
CSD_code = GEKTOG | q = 1 | S = 0 | Stoichiometry = C17H13N6PtS2(1+) | MND = 4
Pt       -2.16124329263347   -2.54733354575774    4.92993149824451
S        -2.81307355035220   -2.78101061337711    7.19337527345306
S        -0.97388810908691   -4.71398713120955    8.74074305827486
N        -0.91637782724493   -4.32796869994067    6.20682818856655
N         0.05392643150982   -5.21586201981837    6.43019647074543
N         1.12071960411993   -6.36560208361979    8.16283513355292
N        -3.69082662375776   -3.48559492460387    4.06877579343601
N        -1.55680626000596   -2.43857117090585    3.10762118348928
N        -0.48283852841793   -1.48218056550060    5.24093483601917
C        -1.55364386338400   -3.94395187338857    7.27938822131154
C         0.18099637454984   -5.53954467579212    7.67118276117893
C        -4.78013638443043   -3.98163822525653    4.64840040308858
C        -5.77028843966310   -4.63790576597883    3.93513273087663
C        -5.62305462807124   -4.78887384591142    2.56450530798657
C        -4.49081513192007   -4.27346601786590    1.95428603304888
C        -3.53243305648243   -3.62106018259072    2.72178171832479
C        -2.29417099245080   -3.05050502051000    2.17331828139243
C        -1.81694277127624   -3.10136518154016    0.86595244154780
C        -0.58234462484399   -2.52732295631216    0.58980415877947
C         0.17046379999594   -1.93227592370461    1.59524291055651
C        -0.35108775263426   -1.90275121493232    2.88575150395825
C         0.25751754818706   -1.35358154869720    4.10693511335896
C         1.50408108783156   -0.73827584403030    4.13777105251485
C         1.99620940176945   -0.24753119145510    5.33666131623278
C         1.22319531356413   -0.37722306085146    6.47995028666013
C        -0.01175937052063   -0.99903104450838    6.38474235721382
H         1.00676992155854   -6.73487873885894    9.09072159280277
H         1.63334011249191   -6.92246020915509    7.49953172420305
H        -4.86096764886506   -3.84357258226302    5.72034098715609
H        -6.63699572405412   -5.02006914275816    4.44887333471165
H        -6.37465640723456   -5.29582762409424    1.98037817067058
H        -4.35194773711463   -4.37246265189330    0.89018575822937
H        -2.38144034157703   -3.57949170155739    0.08308771759491
H        -0.19612190130016   -2.55575009963850   -0.41694606856466
H         1.13644954162113   -1.51121971945886    1.37250875585152
H         2.08274533785681   -0.64639670248863    3.23337562367645
H         2.96287088871060    0.22937634463382    5.37483683811860
H         1.56489437469717   -0.00443360853318    7.43152296819765
H        -0.64651877111391   -1.11189923586957    7.25593456352582

