81
CSD_code = GEKVEX | q = 0 | S = 0 | Stoichiometry = C28H48NiO2P2 | MND = 4
Ni       -0.00000752262477   -0.00000017734641    0.00000395334067
P         0.42087919431089    1.68453346180384   -1.33506810651137
O         1.43002560543534    0.33672690834501    1.16210076916835
C         1.25358069269405    1.38041006356175    1.94511477233655
C         2.29720187647290    1.90702419383886    2.74979475273666
C         2.02492894494483    3.03133892514639    3.50823268632766
H         2.80254300086751    3.45980101458936    4.12073887832659
C         3.65808586058186    1.22326278731195    2.77315195676943
C         0.78412915396030    3.66165641085857    3.53107860666987
C        -0.23859435886978    3.12103114234874    2.77156153718527
H        -1.22178017600252    3.57242801463276    2.78100925626670
C        -0.00526946943511    2.00125791123125    2.00071655155077
H        -0.81914313685475    1.54768200204220    1.41755987810680
C         4.24020725404988    1.19356388239811    1.35414979149525
H         4.39332005959891    2.20755366363189    0.98898945025512
H         3.55911052305952    0.67553020095519    0.68542797419512
H         5.19738550521764    0.67514499195706    1.34956130102899
C         0.56507475144364    1.28401201499584   -3.11952584846697
H         1.43237733293999    0.64679966356701   -3.28148247239695
H         0.67605427036802    2.20019200078319   -3.69793371432146
H        -0.32186916750059    0.74799058261856   -3.44739828124336
C         0.57785550968888    4.88659899198749    4.37402239215505
H        -0.43809351198747    5.26048406429011    4.27004269545431
H         1.26867179727663    5.67689390586640    4.07987919630113
H         0.75738197536398    4.66438053733774    5.42598100634948
C         4.66707043715157    1.92309298651934    3.68809887174938
H         4.85154496999781    2.94453864297196    3.36268471537389
H         5.61262531533287    1.38444913144407    3.65562847540318
H         4.32271126751929    1.93368414826745    4.71985334884539
C         3.47088485815639   -0.21360884578094    3.27835467872963
H         4.42339460327171   -0.74016645471329    3.29080355734918
H         2.78666076218546   -0.74510753008172    2.62426234344009
H         3.06232695979717   -0.21031222354916    4.28770174700867
C        -0.90905425254362    2.94822920298272   -1.35210197515690
H        -1.87508521656359    2.45729663566146   -1.43801200860617
H        -0.76792723336352    3.62807698311035   -2.19093071425509
H        -0.88048914248163    3.50843555649313   -0.41965252097178
C         1.89332090223339    2.75809825180047   -1.11290058811891
H         2.79632591986497    2.17415096788693   -1.27371751298921
H         1.91009936052813    3.14651819024086   -0.09695899156302
H         1.86449944679874    3.58520666470283   -1.82062882447364
P        -0.42093317118395   -1.68450423019152    1.33509849187301
C        -0.56511649175017   -1.28396314150082    3.11955305192855
H        -1.43240813781132   -0.64673356570431    3.28150613130237
H        -0.67611089987818   -2.20013696520185    3.69796943478576
H         0.32183923956660   -0.74795423302134    3.44741631704628
C         0.90896918254357   -2.94823160928103    1.35214488742274
H         1.87501199460496   -2.45732345349588    1.43805395340410
H         0.76782347652102   -3.62806907466585    2.19097829653561
H         0.88039095383707   -3.50844337754617    0.41969958243982
C        -1.89340029238045   -2.75803663953222    1.11294031956245
H        -2.79639108057647   -2.17406490592249    1.27375368375037
H        -1.91018572843667   -3.14646052193165    0.09699964476885
H        -1.86459919136341   -3.58514263701221    1.82067334045358
O        -1.43003087129768   -0.33673723344564   -1.16210269404577
C        -1.25356762922041   -1.38041694469744   -1.94511548129174
C        -2.29717313724960   -1.90704127175706   -2.74980941333811
C        -2.02488010922966   -3.03135545044684   -3.50823979534442
H        -2.80248124118763   -3.45982658267922   -4.12075543769077
C        -0.78407482977937   -3.66166190733040   -3.53106795472849
C         0.23863416075195   -3.12102517611141   -2.77154002935453
H         1.22182396462232   -3.57241261059764   -2.78097272932517
C         0.00528903590824   -2.00125299629055   -2.00070043663019
H         0.81914960735462   -1.54766800805787   -1.41753439654439
C        -0.57778008115580   -4.88660462888843   -4.37400524333013
H         0.43817104752126   -5.26047963179821   -4.27001208787443
H        -1.26859247375733   -5.67690475644911   -4.07986743416202
H        -0.75729576552583   -4.66439098740531   -5.42596662213488
C        -3.65806167115194   -1.22329065104071   -2.77319008870723
C        -4.24020480502873   -1.19358782006719   -1.35419701675412
H        -4.39331741208647   -2.20757672736649   -0.98903364563063
H        -3.55912136123675   -0.67554644308831   -0.68546741735229
H        -5.19738658891195   -0.67517500627005   -1.34962639209570
C        -4.66702810889009   -1.92313255553265   -3.68814811306022
H        -4.85149994928054   -2.94457790828690   -3.36273187831079
H        -5.61258795748594   -1.38449644608206   -3.65569408896400
H        -4.32265372725519   -1.93372635784357   -4.71989729829934
C        -3.47086372834568    0.21357894906385   -3.27839905292123
H        -4.42337689937004    0.74012970086687   -3.29086297664826
H        -2.78665086440263    0.74508613670717   -2.62430201716677
H        -3.06229338088854    0.21027820319206   -4.28774097841314

