53
CSD_code = GEKVIE | q = 0 | S = 0 | Stoichiometry = C24H20N6NiO2 | MND = 6
Ni        3.11677532003445    1.99380677682178    1.07980575582572
N         1.42469322298435    3.24648782071007    1.65592886699662
N         2.20737926565390    0.56118551759140    1.70642999522025
N         2.96242214129861   -0.49128380384796    2.01733382131834
N         3.92305224524636    2.66355671911062    2.99316094495542
N         4.09062488285887    3.28600119950818    0.27143394038203
N         3.65352980906590    3.64747135257517   -0.93387731490801
O         4.72710006605569    0.66263162660850    1.16543539773022
O         2.13155732436112    1.96650398882425   -0.76343353937925
C         1.63651923026522    4.54592037054264    1.62364914590941
H         2.61975530220247    4.87951486009952    1.93114898903556
C         0.67211240298195    5.48222098256458    1.23389317431197
H         0.92568708952158    6.53031262873519    1.20283010442144
C        -0.58247956035069    5.03873074367574    0.91642110635455
H        -1.36570665315562    5.72305719361342    0.62237519040619
C        -0.86794018231606    3.66048852234963    0.99858845899011
C        -2.15624248101892    3.15107400105716    0.74501989743846
H        -2.93850539835341    3.83638150200391    0.45334226160728
C        -2.40277724099258    1.80991662359293    0.87459329293153
H        -3.39262173620879    1.41802340524882    0.69329294465729
C        -1.37621253036775    0.93760057584043    1.23069119035884
H        -1.58865974641989   -0.11818528894069    1.31415135768624
C        -0.07835568009287    1.37882672878314    1.44960464333336
C         0.19030382897348    2.77912094124944    1.35729626999036
C         0.92507570291128    0.39808996108739    1.75232935632587
H         0.56847734251228   -0.60125433618699    1.99778652504473
C         4.24225148667878   -0.36232697381151    1.69836929047464
C         5.11334915546646   -1.55602307463881    1.98870817878758
H         6.08285093059754   -1.22020104240116    2.34799735536228
H         5.26512309873504   -2.11501865947340    1.06711646310691
H         4.63272852878165   -2.19794414134795    2.71954568933219
C         3.34114821019624    2.16741382385713    4.06541410266743
H         2.26899730084646    2.02690184648615    4.00784459384527
C         4.02615943374792    1.83758870731301    5.24040045759814
H         3.48835561127396    1.40642849548443    6.07023868936172
C         5.36898037701202    2.08953558987623    5.30994162554997
H         5.94026687757421    1.86518261114655    6.19959960332938
C         6.01817045334411    2.67827487211136    4.20553135647255
C         7.38436603082711    3.01860656329149    4.24021404068634
H         7.95351107723893    2.79579963139161    5.13077314470116
C         7.96900245459180    3.62596596816215    3.16058801908185
H         9.01329308799416    3.89965804488779    3.18895657218461
C         7.22450517506378    3.88612044133911    2.01184599418999
H         7.70804327243795    4.35352197124666    1.16655737138633
C         5.88619326846233    3.53271966455112    1.90655371867652
C         5.24845583420073    2.93340756731116    3.03599734266470
C         5.21788933174028    3.78594306284328    0.66173039774818
H         5.73953078831289    4.42690886499269   -0.04759829088017
C         2.65195200065971    2.91372756085975   -1.39722434378716
C         2.16885260924003    3.26271687045931   -2.78027029711775
H         1.08635344065853    3.17159397669385   -2.82139272546868
H         2.59843056155993    2.56014805826801   -3.49210190703682
H         2.48107563511081    4.26874908588150   -3.04026821987613

