53
CSD_code = GEKVUQ | q = 0 | S = 0 | Stoichiometry = C24H20N6O2Zn | MND = 6
Zn       -1.60976805770737    1.00497976130085    3.26948706385488
O        -2.55721394718161   -0.15160734090167    1.86074238557106
N        -1.28882994901072    2.58834173079818    4.77578137177251
N        -3.44691411462155    0.95756783256213    4.02165954201442
N        -4.34109534949095    0.46239676843064    3.15669528779205
C        -0.16696973448982    3.24088228552008    4.58906705328905
H         0.11658767789025    3.40527545802969    3.55898581979381
C         0.64467946912677    3.71195275691420    5.62752638640170
H         1.56915996395592    4.21887759082509    5.40078320231657
C         0.23345421143740    3.50467225896442    6.91510720732404
H         0.82189274642693    3.84338592798120    7.75639845015449
C        -0.99178490192217    2.85005543772692    7.15521731862458
C        -1.48134364465229    2.66608589454743    8.46329338581751
H        -0.89029216453200    3.02040866150619    9.29502050933488
C        -2.69167629280742    2.05888631829192    8.66158867948839
H        -3.07887685225478    1.92493799587632    9.66068385789954
C        -3.43245717490559    1.60401964883899    7.57186467966448
H        -4.38218596948283    1.12127211480469    7.75105002261652
C        -2.98503672143357    1.72352906743692    6.26311662913386
C        -1.73581460840585    2.38116309166478    6.03303376888593
C        -3.82067889746890    1.16898901732746    5.23333073861757
H        -4.82953145594740    0.87334665864789    5.52445465994529
C        -3.79005303142805   -0.02105925569651    2.05379347466361
C        -4.76872402687508   -0.46509495895905    0.99764229691765
H        -4.50942806974786   -0.00003152460724    0.04869189153275
H        -5.77705359054972   -0.19266067644614    1.29135856542587
H        -4.69961141279680   -1.54364591876450    0.87379905658706
O        -0.65861455562401   -0.15187104198289    4.67466080319126
N        -1.93170484835788    2.59144302532757    1.76489666770840
N         0.22524733324726    0.95771880000117    2.51162945197197
N         1.12174403996277    0.46244984651353    3.37417465848697
C        -3.05105616478709    3.24709858467090    1.95588807180530
H        -3.32966513524657    3.41341756592726    2.98712677143526
C        -3.86632649874189    3.71866768979408    0.92059239713364
H        -4.78840085574671    4.22845822665425    1.15096212503336
C        -3.46234195182196    3.50735524651983   -0.36865529993062
H        -4.05347872231210    3.84703559730286   -1.20764031258768
C        -2.24019080486779    2.84887742346937   -0.61364490552942
C        -1.75799683367989    2.66026708749924   -1.92382347973747
H        -2.35265292474235    3.01366986315116   -2.75337185856863
C        -0.55034406566409    2.04924931262366   -2.12694535593724
H        -0.16876672799332    1.91159579605007   -3.12769507847923
C         0.19504779331756    1.59555901045634   -1.03982525042991
H         1.14228375307578    1.10931556593646   -1.22273926298032
C        -0.24521877820455    1.71960721789381    0.27084541130008
C        -1.49153848183345    2.38072412175104    0.50573209964511
C         0.59407164196350    1.16539370362962    1.29786028721146
H         1.60099714311647    0.86703153246882    1.00275569369556
C         0.57373888849196   -0.02045222350099    4.47877641334180
C         1.55499692272456   -0.46481129009035    5.53230819756768
H         1.29867268234277    0.00099746869350    6.48165222389911
H         2.56260420079382   -0.19333403799106    5.23562171686574
H         1.48545884946328   -1.54329069539636    5.65698450844625

