46
CSD_code = GEKWEZ | q = 0 | S = 0 | Stoichiometry = C15H26I2N2Zn | MND = 4
I         0.84038464799627   -0.69723719465929   -2.29589227006126
I         1.39206828625183   -0.36970518182646    2.14747487416565
Zn        0.04927272784218    0.01011760682079    0.02482559482785
N        -0.46005842589204    2.18408154111433   -0.16519504377397
N        -2.09881631846402   -0.04421248474413    0.68889770891535
C        -2.13236728538752    2.28659220944742    1.66284976434037
C        -0.76093738137080    2.76088592729265    1.15836404635193
C        -0.66730038319827    4.29403627547062    1.20748449491294
C         0.69795410709759    4.77053951109214    0.72736438555434
C         0.91527075534454    4.25215064742349   -0.68771326238164
C         0.80751720564381    2.73018849373883   -0.68827721909313
C        -1.55506754659855    2.37254055315276   -1.12612740639854
C        -3.22957770057729    2.67668895713033    0.67878880113899
C        -2.21860134279897    0.77713748761304    1.90390660444158
C        -2.92280279881520    1.91510926892874   -0.60542940508877
C        -3.08017889190240    0.41390369178258   -0.30988969260012
C        -3.03604120873041   -0.45043270730704   -1.56841338262422
C        -2.33653876467721   -2.36995733778082   -0.13946536130632
C        -2.41387780758239   -1.43350991558912    1.05795347074941
C        -3.30365334245253   -1.91264819969782   -1.22522031951548
H         1.62053929394907    2.33989816373150   -0.06402870860047
H         0.94929096079026    2.35724997274344   -1.70507723482818
H         0.18118913895339    4.69380538003150   -1.36473029825503
H         1.90604986402681    4.52484466819650   -1.05287808975280
H         0.74672066019770    5.86023825781929    0.75171476208776
H         1.47927441992836    4.38313774412154    1.38534496605981
H        -1.43557429282430    4.75328688868945    0.58423950805249
H        -0.83897740039260    4.61288299926018    2.23698648297742
H         0.00667869201947    2.38153313984568    1.84561980057857
H        -2.30354740146646    2.76768672153011    2.63175572274968
H        -3.65682709659047    2.16557340525820   -1.37942302490967
H        -1.71356391871903   -1.75460474481068    1.83438438520766
H        -3.42870624313395   -1.47868430859348    1.48420477946292
H        -1.31727375153272   -2.39168048592037   -0.53369597641430
H        -2.57934471564070   -3.38201195923170    0.18754775531934
H        -4.33066993740984   -2.02387305009403   -0.86673352333750
H        -3.18881172887592   -2.53001296204692   -2.11638245244740
H        -3.79168698048617   -0.08695555365649   -2.26745384693006
H        -2.07001415149568   -0.36671427317945   -2.06071391004210
H        -4.08884150229914    0.29133187807766    0.12950597900045
H        -1.65300922444741    3.43013694376895   -1.40340338065554
H        -1.30077328757298    1.82422394348862   -2.03727011407028
H        -3.19069629429245    0.57290908881511    2.38027196767653
H        -1.44284505037532    0.47094188719085    2.60897730934996
H        -4.20789572036087    2.39197756251955    1.07192875586076
H        -3.24963286367757    3.75160954304194    0.50342200330489

