46
CSD_code = GEKWOJ | q = 0 | S = 0 | Stoichiometry = C15H26CdI2N2 | MND = 4
I       -10.57331990958661    7.12321931595299    6.81276464127848
I        -6.90334681743686    9.10930531144306    4.27895502769162
Cd       -8.45685513114351    7.07479884534576    5.12778300125172
N        -9.32810265527256    5.92442243579977    3.11423665686208
N        -7.01134574966415    5.11426238457002    4.68726402691786
C       -10.46789631077771    6.83003866014762    2.88552169733030
C       -11.16412212268681    6.66585021526676    1.53482708258476
C       -10.14349479702671    6.85463839261007    0.41998903132083
C        -9.02044831624260    5.84219997676827    0.61291618299103
C        -8.37040868287939    6.00352079103246    1.99771910282915
C        -7.22651223652542    4.99171631444662    2.17738566152529
C        -8.61710401075113    3.56247962244059    3.57383112690850
C        -5.99331600164455    5.19449046102110    5.74363018342042
C        -6.60808385012212    5.07964438608196    7.13500954565103
C        -7.37631105090616    3.76786743303263    7.25965000279013
C        -8.38236270837264    3.65480661323354    6.11780500303534
C        -7.67791692671388    3.80574273109547    4.76892413542554
C        -9.77282667583397    4.55542680229682    3.39411490484311
C        -6.33596009109216    5.27021479481773    3.39198195743525
C        -7.77400548784515    3.57417549803891    2.30381734583065
H       -11.19509554363113    6.67998682370303    3.69014443681806
H       -10.09296692642506    7.86413094746557    2.94108907108737
H       -11.62499801388780    5.67912580301231    1.45641149213376
H       -11.95926434233078    7.40866723581426    1.46089518266697
H       -10.60985726075103    6.71795673031703   -0.55707876968673
H        -9.73848082893345    7.86861112443425    0.46101074274183
H        -9.42969743560537    4.83862796995533    0.49058864325616
H        -8.25141709354056    5.98350990213065   -0.14827822878241
H        -7.93944605029257    7.01520295182320    2.02802507802842
H        -6.58475132919925    5.07007977001275    1.29338392516813
H        -9.06579772081827    2.57339471005184    3.71969945819272
H        -5.25594434248440    4.38345581747915    5.61295844476522
H        -5.46071423207142    6.14721597764925    5.64380666401373
H        -5.81203526361438    5.12796295332366    7.88031826987358
H        -7.28470142958158    5.92642222750207    7.32016539070469
H        -6.67399187136897    2.93102779082559    7.21456045403719
H        -7.89319417570974    3.72195047482589    8.21882219045108
H        -8.88034336498323    2.68429924050640    6.15284620963444
H        -9.14564979355210    4.42547392231314    6.23313721231633
H        -6.90203344863268    3.01617383758969    4.71333604859495
H       -10.39036649343725    4.58087698631257    4.29765397333641
H       -10.40315106887035    4.16693411663152    2.58092321199544
H        -5.93725732208845    6.28673662416966    3.33158398975121
H        -5.48056215920165    4.57511450953242    3.34000467004551
H        -8.37049360763487    3.29532486609026    1.43588585167037
H        -6.95214934882935    2.85901570108638    2.37978006926246

