47
CSD_code = GEKYIE | q = 0 | S = 0 | Stoichiometry = C16H23CoO5S2 | MND = 8
Co       -0.26496530684504    2.18171657465905    5.80676956875584
C        -0.26033546573490    3.28783250426282    7.52725105859827
H         0.19626760530762    3.08511542182807    8.48571222827844
C        -1.63244092542024    3.03543343981497    7.19983446195054
H        -2.35833766889693    2.57070826268224    7.84567730773071
C        -1.87833128598034    3.62082601375523    5.95548768641314
H        -2.82565599980964    3.64239057222006    5.44317740486449
C        -0.68411044776521    4.26064092483460    5.51521876904094
H        -0.59542010796515    4.86249387671640    4.62442447060065
C         0.29927587200482    4.11021777783624    6.50694671161996
H         1.25290690933934    4.61044085274533    6.54990596881003
C        -1.07151326385241    1.32010188342646    4.21016845715266
C         0.00853491059477    1.86251311899312    3.86257751151406
C         0.50093347041486    0.73097521202485    6.37096293029246
O         0.98035704524157   -0.26748314967299    6.67058175158197
S         0.98354949008664    2.43696237143990    2.47476333986257
S        -2.66066906078839    0.54219823712489    3.90899078835825
O         0.69384163000506    3.83605245681519    2.31543194992431
O         0.63751666819636    1.56824395356760    1.37589659973818
O        -3.65029789772799    1.53354904984665    4.24059909797250
O        -2.66926692873186   -0.68070865461985    4.66487661251393
C         2.74695936451196    2.17465245564403    2.92586200707885
C         3.01813806850618    3.04523698186112    4.13251621736299
H         2.73811281105413    4.07249135688348    3.91052428341996
H         4.07378589181970    3.01592797662466    4.39640128436113
H         2.43466355873043    2.69955812361009    4.98747396445915
C         2.86907803284453    0.69313245134024    3.20929637912993
H         2.21984288823646    0.41264105011731    4.03786582681212
H         3.89406313075151    0.43282304175082    3.46598664248739
H         2.57085592877789    0.12473978559031    2.33124683411749
C         3.51987252034180    2.61261573049694    1.69582243679758
H         3.31694470383382    3.66082450382973    1.48731103169709
H         3.20655972164273    2.02577072059269    0.83526536389238
H         4.59021563616766    2.48107134907634    1.84416010853916
C        -2.75171163172488    0.15481110699764    2.10400268166911
C        -1.58818527723875   -0.76301439459635    1.79762614669546
H        -0.66259095831111   -0.19718105860247    1.72260382440353
H        -1.75131972509796   -1.27684787440040    0.85187249927694
H        -1.49463703796070   -1.50641518790537    2.58700341275575
C        -2.71645723740950    1.47502692001724    1.36633038285632
H        -1.71912217123257    1.90793465997481    1.39333789614543
H        -3.41762042597251    2.16875243632139    1.82579748409655
H        -2.99709837669654    1.33224246591012    0.32415720962400
C        -4.09623412199665   -0.54287594585935    1.99199315869151
H        -4.88737117148174    0.12243200502316    2.33126508801587
H        -4.10293182121480   -1.43222961964294    2.61838526376160
H        -4.29395154255835   -0.83184174094441    0.96103789627406

