69
CSD_code = GEKZII | q = 0 | S = 0 | Stoichiometry = C25H41NiOP | MND = 7
Ni       -0.74066347030896    2.45880882373492    5.25150504877617
P         0.64406224976535    2.10059547336515    3.60928130736957
O        -3.20131234620807    0.33443490337666    6.07174939644516
C        -2.50260209819550    1.49101461427532    6.24887795631465
C        -1.43482625510109    1.65044030136892    7.15249729022827
H        -1.10641096738156    0.82270927301226    7.76611690839784
C        -0.87888213446677    2.92413177317882    7.36165569969050
H        -0.12183666743040    3.04911254335732    8.12626587388486
C        -1.37298305956793    4.04107482195704    6.67530912522050
H        -0.99524893441567    5.02996087550064    6.89953180505923
C        -2.42183274653555    3.87720193824091    5.75866149171560
H        -2.84892283557207    4.74012357337501    5.26432099866325
C        -2.98362000962718    2.61541521698662    5.54575379237165
H        -3.84792244810228    2.48658603223581    4.90929433256095
C        -2.62191124062579   -0.86536941725223    6.52600542144707
H        -1.59540342611157   -0.96871495332371    6.15853072550178
H        -3.23758469859638   -1.66609648747153    6.11891755814915
H        -2.62629694797285   -0.92996495608570    7.61966840867307
C         1.64935105085218    3.57890810247153    3.07826717288196
H         0.90537811898747    4.29704771816334    2.71261348540798
C         2.27600300616224    4.19115475353002    4.33138871159451
H         1.49225164622736    4.31235135339755    5.08904951412878
H         3.03061746861082    3.51583776451260    4.74097967110740
C         2.92677069328943    5.52935590110862    4.00075753334105
H         2.16277117818467    6.22850248275851    3.65298081731252
H         3.38843408648822    5.95467493350065    4.89461917118562
C         3.97848313104789    5.34535825674803    2.90942878292955
H         4.42760674254110    6.30854022795934    2.65729457205591
H         4.77320999348867    4.69364959569465    3.28053541491840
C         3.35619302582844    4.72096305890166    1.66344319100211
H         4.12160742708244    4.58100137697764    0.89643285158050
H         2.59920220460799    5.39788855567318    1.26011719781361
C         2.70744212810594    3.37818612743298    2.00013480946137
H         2.25944800468761    2.95104503625839    1.10079806114814
H         3.47909831884161    2.69512475873652    2.35810577388758
C        -0.25027719540006    1.57314229765386    2.05708398699888
H         0.43479048007337    1.25294781289871    1.26773853835120
C        -1.16876395279609    0.42332899108280    2.47674676136264
H        -0.57647703273922   -0.44579731678823    2.76818665628380
H        -1.72733145291685    0.75775110467549    3.36364606700712
C        -2.14426831295067    0.02653194900740    1.37563922995431
H        -1.58723817447158   -0.34306473361399    0.51027958980598
H        -2.78834463675920   -0.78188828333654    1.72906456315413
C        -2.98787161380792    1.22476640745758    0.95946074158687
H        -3.68271215349922    0.94165466654504    0.16558194238357
H        -3.57329869747711    1.56770339784249    1.81494435336489
C        -2.07770950406453    2.35076959259896    0.48530800208934
H        -2.67420569650550    3.21761049083370    0.19175867344220
H        -1.51959389037168    2.01729987109871   -0.39371266634675
C        -1.09664946689374    2.75365045285642    1.58183632439666
H        -1.64612726664301    3.13829022934938    2.45100375812786
H        -0.45447483590424    3.55168557434496    1.20576181385220
C         1.96092814461623    0.79456530190050    3.88607054836683
H         2.83613267068156    1.35047618610092    4.24485818342674
C         1.49163322032524   -0.10092816662722    5.03492745210110
H         1.17014490687368    0.54032485620498    5.86644578954995
H         0.62539311877128   -0.68238556118703    4.71021292415312
C         2.60382439962983   -1.04588948343160    5.47334265001260
H         3.44652445706286   -0.46352289340132    5.85356154892356
H         2.25397248336229   -1.69329083428536    6.28083112161116
C         3.06681896064115   -1.89388872460170    4.29126837814729
H         3.88530240870746   -2.54847372991064    4.59885015076844
H         2.24160609974381   -2.52670697727384    3.95568307175830
C         3.51918198382526   -1.00350634562966    3.13729094302574
H         3.83161753311860   -1.62187021390631    2.29254630475497
H         4.38162894048608   -0.41184643520249    3.45415830377251
C         2.39143285217538   -0.06687733583080    2.70245934880669
H         1.55247584032083   -0.66866099886167    2.35116070968993
H         2.73196519420517    0.55344449777943    1.87301436309045

