33
CSD_code = GEKZED | q = 0 | S = 0 | Stoichiometry = C10H18N4Ni | MND = 4
Ni        6.57777563879932    1.70283465390929    1.93672620557806
N         5.12488318892738    1.67591547182078    0.75572190941210
H         5.33078651125298    1.65337474702449   -0.24419734335671
C         3.82647056839483    1.68814734741940    0.97107315629860
N         5.36813934998280    1.73948393270835    3.36568489782969
H         5.75526423290841    1.75766322955710    4.31044940111164
C         4.05217105387845    1.74373222394681    3.39352675605698
C         3.26825445390756    1.72039117003681    2.24475922545979
H         2.19551162172503    1.72773016289114    2.34443943794531
C         2.91377647700919    1.67458194721601   -0.22887500496697
H         3.04478432805571    2.59134534105176   -0.80429856082512
H         1.87216570554653    1.60029757295270    0.06889032368552
H         3.15262574265570    0.83104205789106   -0.87636581247757
C         3.37723437022760    1.77267251243114    4.74138237733951
H         3.64616809083381    0.88379704682013    5.31230074839883
H         2.29655629665611    1.80495316031922    4.64061946649365
H         3.70061388664911    2.64795760257721    5.30474769231750
N         8.03079378485557    1.74315836415064    3.11720345039172
H         7.82528008980171    1.77595043598871    4.11693334368145
C         9.32923649914348    1.74345633235690    2.90119803037995
N         7.78717059427321    1.65687589066893    0.50798989643295
H         7.39981115821729    1.62380655875896   -0.43625703743414
C         9.10304909904107    1.65803709193033    0.47967012443176
C         9.88721242736841    1.70124694109740    1.62778069444271
H        10.95990649447173    1.70258837397917    1.52740379487091
C        10.24166210662806    1.79207338941298    4.10045293223426
H        10.05079667578256    2.69610289952310    4.67888031240208
H        11.28570290950671    1.78607285105731    3.80211484803265
H        10.05931551265537    0.93237443609914    4.74530278157203
C         9.77828483881459    1.61992797290033   -0.86778224530856
H         9.41269148931688    0.77445990290182   -1.45032153811231
H        10.85590280953589    1.53222939324267   -0.76633348291799
H         9.55580199317690    2.53351898535845   -1.41972078140001

