74
CSD_code = GELBAD | q = 0 | S = 0 | Stoichiometry = C27H45NiP | MND = 7
Ni        9.44641760234855    9.09786938312035    1.46010566485878
P         9.42228093043300    7.10102987248579    2.31188353578877
C        10.64152012839654   10.98060599692753    1.35997040037891
C        10.56664913659313   10.40293641215848    0.08007577572493
H        11.47497558779582   10.27153306943641   -0.49640753117242
C         9.32494603784740   10.10206975296659   -0.50869267150974
C         8.14699541832325   10.38280849151916    0.20717572303336
H         7.18589990814879   10.23442142484362   -0.27138026318513
C         8.19643307839798   10.95986967572154    1.48831849434801
C         9.44971610647716   11.25205245041193    2.05458567039235
H         9.49521975389167   11.77097209111580    3.00494838508821
C        11.96276728763445   11.44110325196497    1.90602776628213
H        12.76660605818115   10.77657441020930    1.59678033615947
H        11.94396343827314   11.48588237314090    2.99283105661351
H        12.18319477367012   12.44116558939227    1.52783533956799
C         9.25188369080222    9.64277208922756   -1.93752997242808
H         8.37685838681131    9.01761967278180   -2.10395884032708
H        10.14317948353122    9.08444457195746   -2.21663870030460
H         9.17645725285533   10.51159196000419   -2.59424710419550
C         6.93144539796698   11.39420118678903    2.17209663968585
H         7.06635694757586   11.44682786854995    3.25040308304967
H         6.11427837337342   10.70966361701802    1.95436204782533
H         6.64765280754903   12.38625309278564    1.81557806335383
C         7.89907207836445    6.68251691416608    3.30514395360200
H         7.08019073670109    6.71540079586352    2.57612068180325
C         7.65974083808878    7.82725242599584    4.28981681310911
H         8.44840098294415    7.84214110790311    5.04558961685571
H         7.70840533987678    8.77415872279039    3.73935155630617
C         6.30912039631591    7.66418259180630    4.97702574065474
H         5.51286890526846    7.71562017947802    4.23068455532865
H         6.14988945737550    8.47386156600833    5.69289552590157
C         6.24479161057941    6.31740056658806    5.69337801398645
H         7.00099712054070    6.29220364576101    6.48175516981113
H         5.26745254182165    6.19115913197444    6.16468495874726
C         6.49987709761789    5.17406930944581    4.71480164594447
H         5.71069101379458    5.16316468792623    3.95902353970611
H         6.46793734253853    4.21886729050515    5.24439411535833
C         7.85582107891237    5.34235250476071    4.02885548017972
H         8.01493175373865    4.52333274060222    3.32459201413730
H         8.64067800244579    5.30213132573138    4.78553071066539
C         9.49125524107901    5.76623269520872    1.00655951631401
H         9.63230752120725    4.76939924251324    1.43218932273164
C         8.19135816553058    5.82457948248541    0.20535428108317
H         8.01531027929074    6.87424787656164   -0.06249393482121
H         7.35489463185257    5.48570417003581    0.81852152635817
C         8.25538493183679    4.96974340795034   -1.05656052426000
H         8.38106125165469    3.92073247880669   -0.77549367540700
H         7.31513017412989    5.05645349756356   -1.60635717681264
C         9.42015126789607    5.39547194981504   -1.94140965704303
H         9.27582979896925    6.43088116469450   -2.25593245337631
H         9.46048741141356    4.77218221396332   -2.83768215477568
C        10.72334249064751    5.28266622610866   -1.16053034264469
H        10.88912943126849    4.23830996267739   -0.88255334511057
H        11.56361934833580    5.59882583937421   -1.78334601478467
C        10.66416463063614    6.13950217826125    0.09814926515366
H        10.53900934482171    7.19843484162106   -0.17308628708867
H        11.60532295806218    6.05057112552807    0.64298076774199
C        10.80773180319648    6.68894484842946    3.50597150789916
H        10.39812198638015    6.91074744251456    4.49943350534569
C        11.35867876141678    5.26628092978534    3.52287599146674
H        11.81382672281190    5.02880916163663    2.56071874602787
H        10.56388344385595    4.54282351564497    3.70786205581730
C        12.42433982219040    5.14455624148332    4.61273326562173
H        11.97115577394006    5.34002709882430    5.58787642453395
H        12.82196601611359    4.12693609536614    4.62833809669821
C        13.55701024488722    6.13930433252745    4.37483290091739
H        14.30404784697633    6.04838305591787    5.16671631651500
H        14.04644379548283    5.90715732636320    3.42592337355055
C        13.01625803450224    7.56609560255793    4.32655370771151
H        13.83040574515279    8.26575117656063    4.12432189374059
H        12.58811821916245    7.82361897757607    5.29853527939528
C        11.94268492076636    7.68344082387071    3.25183653723363
H        12.38316699215086    7.49121004652753    2.27105729573919
H        11.51993710857875    8.69549115940798    3.22913699740128

