50
CSD_code = GELBII | q = 0 | S = 0 | Stoichiometry = C17H25CoO5S2 | MND = 8
Co        1.98489230660129    2.46919878477905    3.57032807504182
S         3.72029961205010   -0.47352190350769    4.19956325418353
S         5.08562840136224    2.92062694993640    1.87628678534296
O         2.76519276611824   -1.23804272534673    3.43766131509189
O         3.57376223714627   -0.47508216772940    5.62955722817645
O         6.32941793932277    2.26195571964287    2.19503697093269
O         4.56846857947163    2.71997369007913    0.54811556548228
C         0.45251509569434    1.07225624098221    2.95724003667590
H         0.31181464887166    0.04274818081520    3.23955033938187
C        -0.07243028417273    2.20323136400533    3.59959862618938
H        -0.76380275946885    2.20479439366561    4.42827782766829
C         0.27122668395899    3.36319338442271    2.80785903544834
H        -0.13619827944765    4.35271816786903    2.95248808057771
C         1.00455150572464    2.91901676891520    1.69586497975335
H         1.31845069402035    3.50946966264376    0.85114704001253
C         1.17878562961700    1.51433909278001    1.82093923765543
C         1.83985327255213    0.62921266591191    0.81859039340442
H         2.13563158114392   -0.30721091869735    1.28683818717475
H         2.71582539239060    1.11471223067896    0.39049776355280
H         1.14071612345018    0.40804949221180    0.01020662255332
C         3.52819497320662    1.22430871925715    3.65703313872562
C         3.87572836288544    2.24385330790532    3.00626817953395
C         5.43185147725368   -1.01227764533716    3.75528548026152
C         5.48503026745154   -2.41988590743707    4.32347977800771
H         4.70796528918911   -3.03154553651974    3.86988694953724
H         5.31532351445893   -2.38997782070158    5.39753706694515
H         6.45413724918724   -2.87628727518671    4.12848721521293
C         6.38071919680436   -0.06299791261892    4.45433757323663
H         6.03072507106582    0.11858477948980    5.46878759214504
H         6.44245293841957    0.88148466418172    3.91897170838338
H         7.37941918961250   -0.49376466085411    4.50187227598371
C         5.52683886586307   -0.98961525950559    2.24569329574265
H         4.66652076478070   -1.49947594740393    1.81709223711350
H         6.43274047638593   -1.49655115398718    1.91766660639516
H         5.55607008929003    0.03197794700682    1.87409385847463
C         5.23386398388891    4.71216542910905    2.26384110526031
C         6.32670461229395    5.20980002137098    1.33615398845869
H         7.24397744330111    4.65359537213337    1.51606522487732
H         6.51713305798330    6.26957496335241    1.49598765202130
H         6.03049310292761    5.05501488353997    0.30088954890370
C         5.62444795019919    4.76977363066210    3.72485350535242
H         6.55043792081118    4.22051350444525    3.87956515727597
H         4.84867138051896    4.31762318429111    4.34130477491273
H         5.76824588312190    5.79976033580782    4.04533442943559
C         3.88657781484405    5.33513811763298    1.97346497140989
H         3.12506542457590    4.92060438616711    2.63629952879710
H         3.60410863426520    5.12859995549905    0.94384238774456
H         3.92470966019777    6.41327813936094    2.11846727689532
C         2.29767636607377    3.26453652095955    5.08411603895020
O         2.56686789272763    3.73595218333172    6.09557408970723

