74
CSD_code = GELBUX | q = 0 | S = 0 | Stoichiometry = C27H41N2PRuS2 | MND = 6
Ru        2.14315340394318    3.78655420637543   12.62687283549324
S         0.59701716958958    5.57405712546686   13.14637618076907
S         3.24012163500619    1.70475850874651   11.99826450934458
P         3.79562530406479    5.00576231512690   11.45954176946394
N         0.70614654410686    2.56733860667355   13.82055179700250
N         0.76128605482567    3.18243880112272   10.90215400474769
C         3.02237833175458    4.19371970378513   14.20958449382673
C         3.45234907738286    4.49095933267748   15.39206628392485
C        -0.41195536194249    4.73066280662851   14.28132098387601
C        -1.39788853394229    5.46606079962673   14.94552881565094
H        -1.46838235164314    6.52273225468086   14.73685887626055
C        -2.24984371246831    4.85858867960705   15.83861358790018
H        -3.00351054236702    5.44036546214399   16.34795522699630
C        -2.13793095173911    3.49715881663182   16.07924551269728
H        -2.80290938471420    3.00710579890366   16.77403510948141
C        -1.17013563519930    2.76084012307308   15.42174581770112
H        -1.10773952982647    1.70005494893446   15.61585996930956
C        -0.29206168010899    3.35951000848668   14.52681990628864
C         0.02844251679033    1.75813562651714   12.79502415161013
H        -0.85656059706318    1.25970540723251   13.21813249500031
H         0.71733488780142    0.98294362166104   12.44200174719655
C         1.39652369724282    1.67565659515533   14.76427272523350
H         2.27647282321618    1.24651678094768   14.28195215526551
H         1.71493705084729    2.25162497170200   15.63154065023854
H         0.75073143070550    0.85620212679947   15.09388930935702
C         2.41486135579830    1.38366488182176   10.50079311565388
C         2.89762392792413    0.33713411773118    9.70989891634526
H         3.75216181668437   -0.21574667971735   10.06946497377686
C         2.30574710645606    0.02686704179918    8.50758375899682
H         2.69584282422492   -0.77977573580145    7.90505530778665
C         1.20871842927410    0.75581085684993    8.07468326825987
H         0.73270876549324    0.52416832151535    7.13385825958862
C         0.71481666691959    1.78352112986576    8.85659847179298
H        -0.15036008189175    2.32516475238877    8.50415579498558
C         1.30747002098424    2.12129369972787   10.06717772896408
C        -0.40283101434878    2.64174932504358   11.63275555530743
H        -1.04361538035268    2.06197414772886   10.95016398724786
H        -0.99361150385249    3.48040994545303   12.02034540379823
C         0.28794404427710    4.30278647672491   10.07981595394779
H         0.08858907991648    5.15983653459890   10.72392682345428
H         1.05056466794253    4.57417873996197    9.35209937116430
H        -0.63775026399627    4.05980387906426    9.54643167124847
C         4.15489402510265    4.54149452724250    9.66174837045015
H         3.16767093816516    4.24346579717455    9.28105957076481
C         5.06170323199022    3.31505943838134    9.55924840788810
H         4.81079816497355    2.57582606247599   10.31434133826082
H         4.94665621979028    2.85178286571686    8.57938368091729
H         6.10551132774247    3.59357893652813    9.67783825093593
C         4.69761117696039    5.63878830686736    8.74623168785561
H         4.01015304305940    6.47208365982063    8.63760289066212
H         5.65102021180308    6.01789587324919    9.10172836548508
H         4.85730787275115    5.21004485002773    7.75648133089343
C         5.43340378297702    5.00971748137846   12.37905826816729
H         5.14366931746376    5.53122851056364   13.30010084887381
C         5.90840689974745    3.62281080249792   12.80529677645767
H         5.07924098105996    3.05034415954357   13.21870063717156
H         6.33794561383481    3.06739175038293   11.97793470537333
H         6.67137309947716    3.72338104298918   13.57642127808966
C         6.58476502533027    5.77382158781723   11.72851582651516
H         6.31007903828555    6.79098053014816   11.46361506572195
H         7.41186278352623    5.82797725945498   12.43605091034753
H         6.94718898782988    5.26285001016555   10.84100835260946
C         3.53650998569512    6.85811960128498   11.34054799127766
H         4.37758534968804    7.26238709715436   10.76824114471647
C         3.51430358642937    7.49634133506287   12.72700035620005
H         4.50759900350955    7.56954543317332   13.16110898738351
H         3.10223099590407    8.50148895166316   12.65934407100020
H         2.87809260293626    6.91156326492579   13.39077224728132
C         2.24059303298471    7.20024262738160   10.61145466428922
H         2.13794375338611    6.65467790710853    9.67684544015968
H         1.39259428426884    6.96638801707873   11.24868591409411
H         2.21087047452146    8.26640962796815   10.38912303301394
H         3.05789110057610    5.33662846974195   15.94068747204245
H         4.23554198051243    3.93688935156211   15.88910483814450

