65
CSD_code = GELDIK | q = 0 | S = 0 | Stoichiometry = C22H35CoO5S2 | MND = 8
Co       11.30419123035015    0.18968021539530    2.14137935888029
S         9.03197710082745   -2.14948416683305    3.59543673420041
S        10.98481215226655    1.20647613156467    5.46886975499480
O         8.28774890148162   -1.95646526305009    4.81795930889359
O         9.89518866700184   -3.30189411051834    3.54049900632859
O        10.85378685679044    2.59097372580344    5.09881712696119
O        12.28963580790582    0.77398694089520    5.91302643068336
O         9.48879722661557    2.15954637641964    1.05248353981498
C        10.05535397964384   -0.70166099744464    3.39780188922312
C        10.61504534761989    0.25443456133603    4.00088213810635
C         9.73685569872854    0.81256290395908    6.77685907829864
C         8.37622575693620    1.03913791327788    6.15366904509201
H         8.39075732894819    1.95811043898123    5.57028723075635
H         7.61488903832642    1.12795251361810    6.92687240814290
H         8.11296088557924    0.20477922749358    5.50801660303652
C         9.98804697106940   -0.61130426125863    7.22170801253881
H        11.05376409800246   -0.75986969931982    7.38260058027975
H         9.63897797117728   -1.31722983698589    6.47222481655848
H         9.46154840710490   -0.81436591352831    8.15276630082129
C        10.06741895655471    1.82748522363418    7.85705741813223
H        11.09361838751576    1.68851764110270    8.19091594172193
H         9.39926909440059    1.71313019166351    8.70917413320067
H         9.96964606891263    2.83502962710544    7.45914325807995
C         7.85469189713951   -2.15028332036751    2.18037129809829
C         7.12598529888421   -0.82633016367080    2.27036039829249
H         7.83017925390614   -0.00113541287342    2.17354882440451
H         6.62899002795389   -0.74446186040184    3.23438831447007
H         6.37974091071959   -0.74261863403693    1.48252065476694
C         6.95157767285713   -3.34251968734982    2.43535476849913
H         7.54449564742847   -4.25422829440228    2.46336928114229
H         6.19837767687022   -3.43265572234057    1.65451241297042
H         6.45493588298458   -3.22899174923858    3.39633641037843
C         8.67982231665507   -2.29517248846558    0.92099654917569
H         9.24138605883848   -3.22510852850674    0.95643758531358
H         9.38225636745468   -1.46421063214980    0.83418629746202
H         8.03714425551612   -2.30357243074314    0.04224068032178
C        10.20386896134943    1.35510088303909    1.45713587147104
C        13.00564120295548   -0.93047159449035    2.69584055713863
C        12.49476930895073   -1.50428970359333    1.48709230796555
C        12.44381135168750   -0.47835951122620    0.52052811345515
C        13.01186921297206    0.72856165968867    1.12298846913645
C        13.42115981199629    0.40913422123475    2.44169523703681
C        13.28716119958791   -1.70372922674058    3.94178886338589
H        14.27469903991377   -2.16402193758029    3.87278726013777
H        12.54908897226447   -2.49190053054528    4.08002024435483
H        13.27110816563209   -1.05004066137722    4.81101392988915
C        12.24323229290392   -2.96427183773976    1.28235971834030
H        11.59740771703031   -3.36633875136999    2.06110408157410
H        13.19284934066543   -3.49997622392447    1.32591033777844
H        11.78966994732042   -3.15138042260869    0.31240568700029
C        12.15676270157025   -0.65103796386233   -0.94107970009198
H        13.06629957477528   -0.96639532489382   -1.45576317526723
H        11.81929109516859    0.28012984963913   -1.38887191680225
H        11.39447540109185   -1.40846264150709   -1.10837719031058
C        13.40797907441423    1.95825773319593    0.35736313445183
H        13.39715435966086    2.82739939377738    1.01690215605349
H        12.69887096379771    2.14730837719011   -0.45062317876492
C        14.81172999330743    1.78321251046314   -0.22833832174393
H        15.10266552558189    2.67327121383648   -0.78100539485060
H        14.84014694160081    0.93130845306160   -0.90317546566912
H        15.53426174568665    1.61584297134385    0.56615148052239
C        14.24551692288276    1.25149241804036    3.36014131673855
H        15.27890036059179    0.89900910458647    3.34692977739341
H        13.87887350811028    1.18659026595014    4.38189934959787
H        14.22973610556306    2.29431681764732    3.05520286003721

