40
CSD_code = GELFUA | q = 0 | S = 0 | Stoichiometry = C13H20Br2N2O2Zn | MND = 4
Zn        2.57328487348377    2.52368943957996    6.11004338096899
Br        2.86276923267242    1.10653436059873    8.06609474092809
Br        1.17437560844087    4.32168912411506    6.76163915655455
N         1.28182691327359    1.28943113162043    5.04201831224574
N        -0.34442108754380    1.26683480561391    7.91345658100871
H         0.70848924811683    1.37402909186034    7.99059527082392
H        -0.53224327182323    0.32582993314382    8.27206268681260
O         3.82299663844679    2.74485604233786    4.79572343124401
O         5.60112685126523    3.17801971931673    0.54262967521733
C         2.55118976550999    1.75836885411426    3.01247529787107
C         3.66600238811666    2.48564827377559    3.54864895640634
C         4.65424932583818    2.92440008658179    2.64643313258493
H         5.49770208658559    3.46682153333795    3.04358517692474
C         4.57923587522417    2.69435031028617    1.28923015364801
C         3.47874031903996    1.98800118353158    0.76617938142160
H         3.39153534497254    1.79436836678511   -0.29046983419322
C         2.51124938219047    1.54016325735388    1.61913495142159
H         1.66906675188272    0.99385106372456    1.21530447707233
C         1.49699599139004    1.19961444387909    3.76978298862635
H         0.78871601353997    0.60026410429143    3.18234132881526
C         0.17815593929181    0.52442032890001    5.58193199606744
H         0.59276069595457   -0.31437263463484    6.15625647268526
H        -0.41989955179535    0.10357229025455    4.76145151755041
C        -0.74303134161793    1.35093286397450    6.49174557768430
H        -0.70859996513895    2.40145430013029    6.19500613168347
H        -1.76691878456471    0.98886469249363    6.39290532154454
C        -0.96710474603198    2.26101090534156    8.83702842332255
H        -0.74783895325340    3.25228294985994    8.42933479461029
C        -0.29769595023456    2.10629395236145   10.19303886131821
H        -0.51217910661895    1.13312983428613   10.62869586894681
H        -0.66056539585760    2.87300157909448   10.86904936021717
H         0.77900174362450    2.21755200438552   10.10529423697960
C        -2.46860423417441    2.03851349683221    8.91974324180481
H        -2.95654932897164    2.23533056055124    7.97002617188621
H        -2.88887518347521    2.72013813698756    9.65221521510128
H        -2.69468396933889    1.02174017551646    9.23668965222941
C         5.58838742286806    2.97497652213256   -0.85029507191209
H         5.60145968421511    1.90980636210933   -1.10240652001519
H         6.49860274218000    3.44255776243943   -1.22259730046549
H         4.72119003232285    3.45062879109389   -1.31922319763271

