39
CSD_code = GELHIR | q = 0 | S = 0 | Stoichiometry = C16H18N2NiS2 | MND = 4
Ni        3.80253906826391    5.77413189644470    5.21257721054642
S         2.88241659763692    5.01184997285138    3.43873583403628
S         2.20189372810698    7.05261611647720    5.82724436022438
N         5.60126561939252    5.12342644134963    4.57732203989656
N         4.61981436396224    5.88861387690547    7.05071521483241
C         4.19034360689959    3.92248928472635    3.01945757353861
C         3.99621407756890    2.93264405403144    2.05702562030932
H         3.03407699052975    2.86023823857070    1.57495096602939
C         5.01600615475493    2.05573546516662    1.74846577566872
H         4.85236268471994    1.28409633151036    1.01127865791355
C         6.24527384423064    2.15404901749627    2.38256055151614
H         7.03931589221067    1.46343622745838    2.14358209083509
C         6.45931130984294    3.14913185598822    3.32288419021375
H         7.42277421409291    3.23069342749850    3.80520077005463
C         5.43829907386158    4.02595798120664    3.64351905528918
C         6.41205657757247    4.79498921230996    5.75940124486871
H         7.48698715161859    4.85772371926943    5.54068552198245
H         6.18049873188693    3.76700987101822    6.05124327052450
C         6.17041997085154    6.26938008876977    3.84626526643109
H         7.19503333080423    6.04722010024817    3.52266388290865
H         6.18222821146204    7.16303127784339    4.47302673272797
H         5.56059574245403    6.47186159547227    2.96424361061291
C         3.02678705985571    7.70204172211334    7.23113487442707
C         2.52619803834506    8.83130028911079    7.87760208146982
H         1.62285613380109    9.28553726019026    7.50211865366501
C         3.19187889083947    9.36048629800685    8.96433789956284
H         2.80384903241707   10.24275331113284    9.45084919285615
C         4.35753200386300    8.77202098850598    9.43108237469791
H         4.87931904482837    9.19121070852759   10.27760006905044
C         4.85211489467908    7.63469951404118    8.81293796101333
H         5.75345578870365    7.17147086943622    9.18782278997392
C         4.19447212074556    7.10408822132259    7.71746783008808
C         6.07758106131192    5.75442734758363    6.91204776805851
H         6.53732808520118    5.37859944865375    7.83651999288880
H         6.48824686526182    6.74593796134580    6.70283496861674
C         4.04857069009876    4.74064651639149    7.77705051345180
H         4.49783026313777    4.65581232852336    8.77450391072297
H         4.21926326780987    3.81099340632497    7.23081008215504
H         2.97268981637693    4.88524775617599    7.88862959634073

