38
CSD_code = GELHAI | q = 0 | S = 0 | Stoichiometry = C13H18F3NO2Pt | MND = 6
Pt        4.49956977548443    1.70158471849165    2.67881425484382
C         3.32738469357227    1.94213200679763    4.33349995574657
C         3.48954330395372    3.22992676667674    1.77515609509934
C         3.21233075570239    0.34041392446772    1.86319313059746
N         5.75398271597157    0.07187531579042    3.64300786308113
C         5.22536941293093   -1.01565795702608    4.19510989396711
C         5.98969962736679   -2.00615815953898    4.78757920763205
C         7.36829407734582   -1.86327512217071    4.80847118534304
C         7.91958608710341   -0.73346732543474    4.22823301748395
C         7.07374881242505    0.20478749199976    3.65817586062326
O         5.89338499613031    1.53692287308902    0.92033994684471
O         6.00775826515623    3.18420082955149    3.44860923653661
C         6.87496372734658    2.25718274399182    0.67369442200995
C         7.43186791342704    3.25304650963831    1.51362666312394
C         6.96340789671973    3.60940688776342    2.76608598521618
C         7.58093272933610    2.06144003847663   -0.65189573870469
C         7.81967601559978    4.70436749138551    3.44745281726058
F         7.96565831395609    5.79986053052220    2.68115113472560
F         7.31434479801586    5.10880669702376    4.61327575769385
F         9.06978483271388    4.25797918046427    3.70091504933602
H         8.29235880167674    3.78555642429354    1.13973796786002
H         4.14797280459285   -1.09886792360852    4.15826585657314
H         5.51237142658655   -2.86966091041342    5.22328222132640
H         7.99637871296493   -2.61407190106400    5.26419316295731
H         8.98624255771896   -0.57446938890585    4.21612591149358
H         7.48665527757628    1.09189139621538    3.19963146201393
H         8.62950313106207    1.82266723679578   -0.48772967943110
H         7.52915321714053    2.98060316633882   -1.23171834135376
H         7.10509908537278    1.25703695524638   -1.20685353367028
H         3.38686261669398    1.06077850519614    4.97417028008073
H         3.75818693181274    2.79048206777180    4.86826469277997
H         2.27965028984884    2.15316563355190    4.12720105158044
H         3.78071929108516    4.15394441885402    2.27737591423453
H         3.82116219927456    3.26962350651307    0.73553999360661
H         2.40498877556647    3.14395140962533    1.79703701352652
H         2.74745484339767    0.73683746474610    0.96097037122353
H         3.82300537326797   -0.51982801194094    1.57891411312041
H         2.42274591410108    0.01248450883212    2.53949580361478

