79
CSD_code = GELKAJ | q = 1 | S = 0 | Stoichiometry = C25H51P2Pt(1+) | MND = 5
Pt       -1.98188831552985    4.21936754611118    8.40311870779465
C        -3.92380883497490    3.63123808444883    9.47619019375222
C        -3.11695052935465    2.54080051202474    8.83939235286938
C        -4.02974248935090    2.00243091835824    7.74914759543095
C        -5.14387791175265    1.21544733569937    8.46790467930835
C        -5.97214733161349    2.32068661841821    9.14919496151680
C        -5.25203184596809    3.61151105338196    8.72551703735056
C        -4.78801494287136    3.26016059797438    7.31285172782845
C         0.89441147344010    4.98395290551175    6.94765360416777
C         0.59764897187305    6.25105026861231    7.75797292318522
P        -1.19519086387933    6.43457033819705    8.20662854533658
C        -1.14099335091558    7.36505177647542    9.85483867522919
C        -2.54198982169024    7.87997451232232   10.18899158348766
C        -0.14082296043953    8.51740974449239    9.91756915919279
C        -0.75655626151586    6.31414382971865   10.90531777816172
C        -1.94510760688670    7.50644612594767    6.84022483629332
C        -3.46866293551219    7.41410919874144    6.95464059111235
C        -1.54271855374166    6.84760430919361    5.51950809346274
C        -1.49066426519514    8.96107469416919    6.83866155359533
P        -0.00025223375014    3.45748137267800    7.52193858392522
C         1.16890796221746    2.63679167023480    8.76169360197021
C         0.36361665147692    1.62170774694904    9.57182149504273
C         1.63775091581086    3.72618383097645    9.72536188617976
C         2.38967257024404    1.98062517754588    8.12618034544981
C        -0.16475733397339    2.43607100118111    5.94048629827647
C         1.07905304196287    2.40987087155980    5.05417004168361
C        -0.56749291779535    1.00898241659068    6.31167007897348
C        -1.31487736592673    3.08513356003762    5.16251574083758
H        -3.39653961298058    4.66307304192644    9.19645440392231
H        -3.99626965472224    3.62332071441289   10.56506825892710
H        -2.70659564393099    1.77855941082117    9.50207900366707
H        -3.54564545035783    1.43190736624012    6.96008317508320
H        -4.73846626128833    0.49805494977371    9.17969590577459
H        -5.74072207742424    0.66669050798989    7.74086478554095
H        -6.99792450349996    2.32879925393101    8.78480760526026
H        -6.00258347605465    2.21292465749521   10.23258187864221
H        -5.85528010900514    4.51231462271688    8.83555808296604
H        -4.13835678048149    4.02649786815937    6.87097998094379
H        -5.60869209957913    3.04949023655757    6.63155621180726
H         0.58448971834863    5.13733352207298    5.91325645606024
H         1.97057192752049    4.79066765489679    6.94291970702372
H         1.14750773597904    6.22044787303702    8.69888115312856
H         0.93772407816083    7.13068933462157    7.20468811601656
H        -2.82537085480548    8.71355726333054    9.55282932090985
H        -2.56539354054941    8.23539761291717   11.21787117991090
H        -3.28709913879491    7.08983695539041   10.09291098190720
H        -0.42908526899659    9.34322799280859    9.27639629531809
H         0.86379818251377    8.20300011309144    9.64645149232161
H        -0.10413758098884    8.89128392340493   10.93975785773288
H         0.31627724580735    6.14000810295357   10.91263451110776
H        -1.27359096379373    5.36267223226034   10.72737252341808
H        -1.03395709870717    6.65941153636149   11.89938160289113
H        -3.84889305802677    7.90627973367691    7.84391055521605
H        -3.78408484794673    6.36974095363050    6.97258503993209
H        -3.93209899244485    7.88729370803242    6.09107007897450
H        -0.49092815754786    7.00608931052654    5.29493736285569
H        -2.12119534445372    7.27561229340531    4.70288888871810
H        -1.75431836506287    5.77952252806800    5.55950503770052
H        -1.91703617364355    9.51910483316885    7.66738902153469
H        -1.82701797836567    9.43642389436260    5.91840905344384
H        -0.40618743100265    9.04228789631914    6.87602733116620
H        -0.04824650487938    0.83336569747195    8.95050309273465
H        -0.45341751172525    2.12878313383373   10.08500983292559
H         1.00212812076325    1.16064548292127   10.32270936273402
H         2.34472170098469    4.40575757446403    9.25650864985381
H         2.13677159793086    3.26870804573027   10.57763976127297
H         0.77830118377766    4.27929090178957   10.09545176171656
H         2.12926568661900    1.07984283739765    7.57922000043049
H         3.08347898122657    1.69332802375101    8.91481497768201
H         2.91203144374349    2.66532755959420    7.46143638192603
H         1.89814971657782    1.86583691524375    5.51060369369063
H         1.42391389102436    3.40825797091639    4.79889637515208
H         0.82623112047961    1.90264000982748    4.12441931711258
H         0.26563479307032    0.45378205339401    6.73226433404532
H        -0.89669078913573    0.47664196263012    5.42117991313602
H        -1.38539936340652    1.01650382187217    7.02837341775082
H        -0.98173285513112    3.97481839903431    4.63424957387415
H        -2.13160750170620    3.34915017124083    5.84054036957392
H        -1.70424504846951    2.39281952298007    4.41941365315202

