35
CSD_code = GELKEP | q = -1 | S = 0 | Stoichiometry = C15H11Cl2N4O2Pd(1-) | MND = 4
Pd       10.25268109725830    2.80113447984673    1.73059872621747
Cl        8.28006192267563    3.70544010643008    2.32096036014454
O        14.96743325584283    0.22442589079651   -0.76119302628238
N        11.95006278377587    2.03903573992182    1.04440872509676
C         8.65716526097208    3.12258052532274   -0.83036908452307
H         7.89811612169909    3.53110993393532   -0.17191363902524
Cl       10.90747916098094    2.73551264936617    3.84947850254848
N        13.07566824876114    1.90306595682539    1.71802286211083
O        14.25797076894880    2.18735752194693    4.03094171224661
C         8.45883482312344    3.00026516233410   -2.19329928425855
H         7.52381202963413    3.31732886210969   -2.62844823546247
N        12.99911936213793    1.31174360683833   -0.92654288019638
C         9.47170928479069    2.46656460923510   -2.98419605992579
H         9.34028373567469    2.36011697921767   -4.05105497310150
N         9.79143939340656    2.74797630053593   -0.23911322030416
C        10.64759381704015    2.07466320993302   -2.37501104334413
H        11.47873137408549    1.65017379989214   -2.91457032978189
C        10.77747706889434    2.23218665855634   -0.99886849196445
C        11.98626945454567    1.83310356815320   -0.28126493549906
C        14.11486380373122    0.92424762649489   -0.23092617918199
C        15.37163408909225    1.43520532056387    1.98601744136462
C        15.34424209168844    1.80978552679832    3.35033893845781
C        16.54112933257588    1.78425443314900    4.07310792640237
H        16.49547495430174    2.06713401158909    5.11406683577281
C        17.73267963617243    1.42191665182434    3.48732522528138
H        18.64053624314797    1.41727456569192    4.07603179364072
C        17.77617131262886    1.06001943169897    2.14391587719385
C        16.59927093557189    1.07141263671519    1.42185617054648
H        16.61229455145195    0.78022882375848    0.38371853179303
C        19.07547154514193    0.68081649627728    1.49369959170535
H        19.66095642630375    0.03566706163179    2.14769110245416
H        19.66918851579182    1.57205905775878    1.28279870701913
H        18.89477980337968    0.16153824214883    0.55585529399607
C        14.16601112730486    1.42996409504894    1.16771307596956
H        13.45488666745996    2.19529045766117    3.46012398288780

