41
CSD_code = GELLIS | q = 1 | S = 0 | Stoichiometry = C11H23CuN5S(1+) | MND = 5
Cu        2.66792952275901    3.56237209660496    1.60865732802183
N         3.28096906541162    1.59169163756812    1.11518746723203
C         4.70583425718954    1.56756634467317    1.45079394966661
C         4.85384323185332    2.08494911879038    2.88384881836724
C         4.05379498486434    1.19248119370759    3.83563904742936
C         2.60310408629308    1.05345920543055    3.37762733518553
C         2.55499231050503    0.60732816431211    1.92143971899513
N         4.33736307601727    3.46410292859334    2.91107550716811
N         2.33846520322639    7.48793416315276    0.29876478011404
C         1.92647101284286    6.15880559970452    0.04795025771431
C         0.78327757956834    5.78730351068160    1.02954829574197
C         0.93663389396379    6.56984948480307    2.33966683335125
C         2.40974444889219    6.80229463820870    2.64798702322073
C         2.99911005320373    7.72197134844715    1.57754094165434
N         0.78376743208341    4.33972776897159    1.27853125032209
N         3.01271954289264    5.16991403996109    0.16513236802324
C         4.18372303503559    5.15504673470891   -0.13523544212673
S         5.69999234210282    4.92548430540647   -0.38865085431440
H         3.16323645662327    1.38416123091072    0.12755771828498
H         2.85522869752178    7.90460083745376   -0.46438243424719
H         5.02038358293898    4.09116186429479    2.49341898994387
H         4.18562581767134    3.76222762018898    3.87019596474767
H         0.46570958243415    3.84702752313686    0.44734445785619
H         0.14122142077347    4.12059310695935    2.03401317000528
H         5.12162980108651    0.55511224696485    1.38007134162458
H         5.24641331607374    2.21746625244601    0.75960728075805
H         5.91254507126238    2.05757927746404    3.17361814972828
H         4.52355552868681    0.20834897292151    3.85962399808954
H         4.09050806740736    1.59881598258113    4.84734386218478
H         2.08315636333425    0.33202806077581    4.00646894665887
H         2.09395010695834    2.01784610549906    3.46647158578611
H         1.52198793210652    0.55414581425513    1.57376410545739
H         3.00742255662969   -0.38793654219190    1.82318975627139
H         1.55936859646579    6.08446673408019   -0.98371245945928
H        -0.15764252061155    6.08930560498697    0.55278415578597
H         0.44158008837240    7.53469317493279    2.23636273885718
H         0.45421790645916    6.02572853048282    3.15183210598698
H         2.53032655578345    7.25722375358253    3.62952784110793
H         2.92423821992433    5.83625616339855    2.65098858140153
H         4.08566098441839    7.56871480919989    1.50936964095028
H         2.82084078897022    8.76835059194318    1.83673587645166

