57
CSD_code = GELLUH | q = 0 | S = 0 | Stoichiometry = C22H16F12N2O4Zn | MND = 6
Zn        4.12766657334912   11.92859933133953    4.24250550712550
F         6.94565594904840   11.43644622698862    0.78889032403203
F         8.58521850288813   10.71292411106177    1.98165319988231
F         7.20816402533304    9.32206945232998    1.09056407026811
F         6.45840812982145    7.24174993689527    5.36267467529390
F         5.84937279285171    8.41246443102921    7.05692586793165
F         4.36687501269452    7.61772865381021    5.71237492496249
O         5.82108740811983   11.69909829155515    3.12232956136627
O         4.90328631706711   10.38970361007534    5.38347385206434
N         4.96716900704702   13.26891253778069    5.52067720775091
C         7.28672947780851   10.51192863967028    1.69321649706015
C         6.41091223703786   10.61600541837892    2.96648090556268
C         6.41632899348330    9.49582056976353    3.79300684460339
H         6.98046144005441    8.62372576385234    3.51242856322203
C         5.62256739922721    9.47882733560914    4.93792352291351
C         5.58759356150888    8.17170374510293    5.76470192292224
C         5.98517459364691   14.03773383767017    5.14089824639852
H         6.20383991352930   14.04650250958702    4.08342550227832
C         6.73622141429192   14.78312244757414    6.02861898398901
H         7.55324016127365   15.38764912461334    5.66574611041925
C         6.43690347063936   14.74332924203295    7.38779458390563
C         5.36580394091374   13.94133907777221    7.77139028246616
H         5.08015882236545   13.86907591398865    8.80926652223920
C         4.66749920461705   13.22746502770207    6.81685451625089
H         3.83375880100044   12.60064914211512    7.09182636013047
C         7.23758813606817   15.50402278803734    8.38959262517280
H         7.74267906817551   16.34849769280812    7.92816792189714
H         7.99585633446388   14.84912151964654    8.81937998731766
H         6.60692762964647   15.85870237665895    9.20110282916050
F         1.30980302857613   11.43635947624705    7.69621431330907
F        -0.32987447141689   10.71313419835711    6.50341150401771
F         1.04701469471054    9.32203141081384    7.39439156154856
F         1.79683218861611    7.24177872446729    3.12232755912055
F         2.40610203505189    8.41241809314802    1.42811100571515
F         3.88842160677338    7.61763979400630    2.77283342458618
O         2.43424477339855   11.69909906656966    5.36270051266922
O         3.35203026214601   10.38969075821669    3.10155600736018
N         3.28815127075764   13.26891338223001    2.96433377421673
C         0.96860003654513   10.51194792608565    6.79182140905206
C         1.84441809820243   10.61600836341312    5.51855790570157
C         1.83898182500792    9.49582511933283    4.69202835996511
H         1.27484405617094    8.62373445016486    4.97260758928281
C         2.63274022462984    9.47882349863302    3.54710993662397
C         2.66773421907251    8.17167888373413    2.72036532969654
C         2.27012933708466   14.03769540278649    3.34412276329643
H         2.05150657042436   14.04649602364606    4.40161190368878
C         1.51907575744916   14.78309622899115    2.45641863879770
H         0.70208608988614   15.38766308329196    2.81931419047727
C         1.81839486078487   14.74334087616044    1.09724709185242
C         2.88950713703575   13.94138383141665    0.71363867849429
H         3.17511365615530   13.86909258131337   -0.32425446948023
C         3.58782659370755   13.22750663459306    1.66816200857021
H         4.42153700857728   12.60064394307630    1.39316487595936
C         1.01768709898980   15.50403102597550    0.09546671023611
H         0.51262043809715   16.34851324133859    0.55690540600258
H         0.25939868759458   14.84913329795315   -0.33429318193143
H         1.64832459801811   15.85870192857303   -0.71606672741754

