38
CSD_code = GELNOA | q = 0 | S = 0 | Stoichiometry = C18H15CuIN3 | MND = 4
I        -1.85274542360897   -0.49194189753793    2.31416206439768
Cu       -3.24132026075958    0.95984184299927    3.81024811546465
N        -1.68767324184959    3.37281730044175    3.33182463912318
N        -3.70455760172735   -0.20883917679806    5.35032675592886
N        -5.20701488188210    0.75975104646639    3.47320858063374
C        -2.48204216331164    2.61555258694226    3.74008039877487
C        -0.69329833282184    4.09357248327808    2.76032409568645
C        -0.56053040042940    5.45392915725043    3.02616648011739
C         0.46368849592046    6.16190764983049    2.42931984342820
C         1.36092333501581    5.53797557956365    1.56932884831629
C         1.21073373103441    4.17685709188256    1.31518445349913
C         0.19629492277564    3.44874279289923    1.89926448395970
C         2.48315772669705    6.30436417822101    0.94200984860513
C        -2.81723464751841   -0.78426085365372    6.14795425449040
C        -3.15177438272991   -1.79442060370541    7.02909696229277
C        -4.47141420063094   -2.23061317883991    7.06629711767821
C        -5.39586993131070   -1.64306130092893    6.22437406563598
C        -4.98198377036230   -0.62121188800937    5.37058964673864
C        -5.85263507047824    0.04118494510174    4.40316581532562
C        -7.24444427241920   -0.05438532967725    4.39969317122129
C        -7.95753663567887    0.58498870639039    3.40432952875952
C        -7.26891000411376    1.30674385139811    2.43550561176152
C        -5.89070585494190    1.36971337128034    2.51948411186599
H        -1.25651585857589    5.94126716395441    3.69297377742736
H         0.56772790381538    7.21760897633213    2.63443393046278
H         1.89989302957088    3.68103814055802    0.64786928779257
H         0.07695849624052    2.39412104654073    1.70241749402505
H         2.64140454111404    5.98426397113681   -0.08547611375684
H         3.40729616830240    6.12522474625469    1.49251708568940
H         2.28261712640077    7.37282140131969    0.95396792958002
H        -1.80206043999849   -0.41954958537718    6.06915424913705
H        -2.40057354311063   -2.23229904931713    7.66606051377779
H        -4.76909586031373   -3.02448514142307    7.73463871595017
H        -6.41840034537521   -1.98481963341040    6.21294793557947
H        -7.75741815941870   -0.61155988525406    5.16713519136630
H        -9.03513164722000    0.52223222127112    3.37872960858513
H        -7.79085977071331    1.80684588833179    1.63582947465513
H        -5.30544877562052    1.91908138426422    1.79446202602850

