71
CSD_code = GELPAP | q = 0 | S = 0 | Stoichiometry = C24H28LaN7O11 | MND = 10
La        1.38767547863286    3.26954661493187   10.98576109495008
N         0.78898397556852    2.70722883593116   13.55630701280478
N         3.73540434389100    4.05670494359430   11.86056651169869
N        -0.97879860937208    4.25977004816857   10.65396594194112
O         0.88832956856422    3.87582771658053   13.22136756491146
O         0.87883485642624    1.81844437990031   12.68330429446514
O         0.60717252418454    2.36801864646206   14.69713692092259
O         2.93310033495329    4.83719965211296   11.34374237315363
O         3.29427449936263    3.07647213455839   12.46187796775138
O         4.91819887281603    4.25058710358153   11.77776512361394
O        -1.00652526676368    3.25770328994719   11.36602927168351
O         0.02191955944348    4.98675908978775   10.70665841060011
O        -1.89505950746901    4.53885964664125    9.92803850798328
O         0.25001414556610    1.41702291273016   10.06178330186912
O         2.80606639615842    1.24714366733588   10.65488592489913
N         3.33729877922851    3.51335876560686    9.07607268377290
N         0.48400692240660    3.53643274537038    8.36803884392174
N         2.58589259514613   -0.34512882018221   12.77317479439028
H         2.15090918205082    0.33700985678266   12.13440184665422
N        -0.46455709674737   -0.51588534182770   11.66731968546802
H        -0.08611371911114    0.43664547623579   11.54623800029851
C         3.19434511034939    4.59042658628075    8.11009695436153
H         3.07211297452697    4.12440263222442    7.12194907559281
H         4.11148643062191    5.19681665259441    8.08171550663889
C         1.99375393068726    5.49188615893131    8.39105782437461
H         2.14029892493474    6.44537695958598    7.87950114189299
H         1.92960261417413    5.68987777210727    9.46420057423283
C         0.68505612673087    4.88229335995602    7.88589896768888
H        -0.15091020224784    5.48637313777219    8.25758911784918
H         0.66027343379687    4.90901862633662    6.78276313373834
C         0.03748501211191    2.69768378840435    7.52093318419490
H        -0.12861481363917    3.00973064716105    6.47745359346481
C        -0.35331505332443    1.33160581630712    7.77980870663471
C        -0.86244209700500    0.57064414474129    6.74989525428616
H        -0.91577130590132    1.00008044467465    5.75780160749858
C        -1.33233208814302   -0.74197214720796    6.92887342573046
C        -1.31223743762751   -1.27292943410348    8.19129383056020
H        -1.69748123632438   -2.26879838439721    8.36390175187495
C        -0.80784378214368   -0.55243886299921    9.29707601571672
C        -0.26179886847032    0.78002560623251    9.11083419161166
C        -0.87959312767935   -1.10794988906912   10.58006057529012
H        -1.33146227019520   -2.09209873493654   10.68901176789691
C        -1.85964159195962   -1.50409059323567    5.75140931947470
H        -2.19782389975256   -2.49301204858293    6.04816850019892
H        -1.08539244316026   -1.61425354059703    4.99328968183648
H        -2.69513406712500   -0.97225940063051    5.29874110651057
C        -0.58666934523217   -1.04860002118676   12.99507128246168
H        -1.41635101991808   -1.76249444373068   13.01855784071589
H        -0.81054384208969   -0.22127344235332   13.67138017452051
C         0.68550837821818   -1.76264851361177   13.47848847260452
H         0.41206046088840   -2.35771764875536   14.35049926536926
H         1.04008051021542   -2.44316141753558   12.70166547176241
C         1.82234171959459   -0.82066940118921   13.89483419182147
H         1.40231796397284    0.04102381634509   14.42525854960127
H         2.49694040627831   -1.35050111904565   14.57377419619735
C         3.88135187505277   -0.45689322873410   12.66004627692815
H         4.39292866082066   -1.08062141946570   13.39007111467817
C         4.65972136063278    0.19983232378335   11.70098009564870
C         6.33699159237313    1.76379428336547   10.13730290249679
H         7.00350356347512    2.39709027663883    9.56769846727842
C         6.06042070279450    0.01920555272715   11.72512073444993
H         6.46560020592019   -0.72166504676077   12.40094583885877
C         6.90207278242467    0.76661918257546   10.94545988125138
C         4.97803230913709    1.99115702305502   10.05678387462898
C         4.05609368946843    1.15913537482103   10.79351023186285
C         4.52999732508933    3.08826310032986    9.23359519253497
H         5.35266246008224    3.58161245361849    8.69514820293889
C         8.38852797962378    0.58403648648451   10.96884805229313
H         8.87131844785012    1.49154498796811   11.32791813775828
H         8.76305232246585    0.38066119971629    9.96663099799932
H         8.66899138268792   -0.23939102085806   11.61994966644133

