31
CSD_code = GELPOC | q = 0 | S = 0 | Stoichiometry = C12H15ClFeO2 | MND = 8
Fe        2.68069247966305    3.00001140345402    3.29566235822840
Cl        1.43135702749337    1.44600438458666    2.51727923856892
C         2.50284170891788    2.58307335042535    4.97760421394023
O         2.36806495806657    2.36481291215196    6.09342176317574
C         1.40971110346143    4.15083099804117    3.60754012660364
O         0.59914641751971    4.91278409442081    3.87782015003816
C         3.87851134777823    3.09931250937372    1.29182464111681
C         3.86126915342908    4.36967547799967    1.90073592658213
C         4.45647457169791    4.23546571325598    3.20444310363792
C         4.95228978097909    2.89078294665587    3.33139482288867
C         4.54942318039162    2.17837219483822    2.18371926896897
C         3.41175098586995    2.72517489199379   -0.07424344904573
C         3.42694114058330    5.65812556620134    1.27638452494049
C         4.83063551145089    5.37547320070868    4.09817353684968
C         5.83857157911628    2.39633463681146    4.43031272546549
C         4.85735043872207    0.76352847459160    1.82368272864628
H         4.24565700384359    2.33955658093825   -0.66114635065656
H         2.98212057483573    3.57746803169106   -0.59294026551931
H         2.65681040478009    1.94166137076922   -0.00514287662715
H         4.27794113472910    6.13134133794182    0.78322282654974
H         3.04422411109438    6.34675409571804    2.02526736263181
H         2.64931497925271    5.49302662154656    0.53532735366935
H         4.91416872885062    5.04882468907162    5.13136809644875
H         4.08895669493161    6.16833684638136    4.04925932327193
H         5.79307015858418    5.78820022727511    3.79111756427495
H         6.87924856216153    2.61825326746618    4.18743666841440
H         5.73982603373426    1.32214095434421    4.56243318905359
H         5.60092057433671    2.88053077110699    5.37405294934725
H         5.54603254804099    0.73394082873194    0.97817466212318
H         3.94277313405115    0.24678895764346    1.53508241841599
H         5.30760397163019    0.23291266386132    2.65793139799632

