40
CSD_code = GELWAX | q = 0 | S = 0 | Stoichiometry = C16H15ClMoN2O5 | MND = 6
Mo        2.16175443230239    7.22315167708843    1.57529397907740
Cl        5.19013862524667    6.27625498416076   -5.02310021952647
N         1.90151129689610    5.45359068972632    0.32928239424476
N         1.30045590126409    4.42215422350584    0.97300765860937
O         2.57684340315317    7.92091569867995   -0.07631012777459
O         1.03769776315775    6.01333320803680    2.55853985806250
O         3.62745482951488    6.73553076470270    2.14833167665175
O         1.52574779041746    8.56763120248734    2.27043739546484
O        -0.25893700856230    7.24486119985842    0.29390295642214
C         3.13563319046744    6.17491703744457   -1.59258107870538
C         3.17220365412564    7.53403622889299   -1.17810028204126
C         3.84795724650658    8.46664746875538   -1.98252746038606
H         3.87236951890821    9.49423769514359   -1.64929578797644
C         4.46481433422804    8.08245267937694   -3.15122407746824
H         4.98382812219643    8.80581963455799   -3.76038607929921
C         4.41822106751824    6.74711712889617   -3.55244858971199
C         3.76544730439957    5.80476624063046   -2.79035788434296
H         3.73977461466436    4.77322900970542   -3.10702894109874
C         2.46394316375024    5.19000974360519   -0.80461659056934
H         2.43555766495889    4.16178032790351   -1.16669841965763
C         0.90066922425644    4.78830590242414    2.16180996369970
C         0.28028326904998    3.80967729487398    3.05785258982001
C         0.03608558527977    2.49859643746893    2.64848679774318
H         0.30810744111043    2.20718159824522    1.64675960169495
C        -0.54472719301993    1.60268155616032    3.52203142940988
H        -0.73419565601697    0.58831504966152    3.20166307464809
C        -0.88953742465304    1.98385793027016    4.81664911327716
C        -0.63823150358303    3.29290398021185    5.21849396027797
H        -0.89812522297715    3.59899600534698    6.22138071954489
C        -0.06112991451875    4.19988613360922    4.35382583357072
H         0.14149782447816    5.21712826521591    4.66030015379011
C        -1.49190201453106    0.99751966200921    5.76658771895772
H        -2.13780813359173    1.49424187518235    6.48640512986479
H        -0.70084131346748    0.49029030252246    6.31985541346335
H        -2.06506932045109    0.24261803210873    5.23386201403436
C        -1.11394367205291    8.24175363467101    0.84274364210786
H        -1.80398095384432    7.80758270067711    1.57173639333763
H        -1.67689490483165    8.73943221416295    0.04668339162495
H        -0.45862043798216    8.95301300624745    1.34515512119403
H        -0.81235259375965    6.54118157577328   -0.06990244203750

