40
CSD_code = GELWEB | q = 0 | S = 0 | Stoichiometry = C16H16MoN2O5 | MND = 6
Mo        0.80053134127372    7.07799578976304    2.11180222518033
N         0.48801870267700    5.62157924164198    0.53644988013986
N        -0.05610082877814    6.14383986846743   -0.58937663790268
O         1.13462569999078    5.52981153093126    3.04027386839772
O        -0.23688890381538    7.94769996850627    0.75529259964979
O        -1.68801333751761    6.15262176476129    2.43790971251023
O         0.09904435522464    7.94345520211269    3.32722108955021
O         2.31091237640521    7.50866541869678    1.61913587679281
C         1.58812256333042    3.74134737783309    1.54105800081774
C         1.67294753898279    4.34947510600088    2.82161405698167
C         2.31549708471466    3.66077732365122    3.85978445860359
H         2.37782251618484    4.14509137565280    4.82410003950983
C         2.85699641765946    2.41213449818786    3.64360827664392
H         3.35218906702969    1.89713324992506    4.45297294425852
C         2.76772277603224    1.80816525819401    2.39135546296016
H         3.19285893640227    0.82922381634997    2.23386647299993
C         2.14151363181506    2.46468152666687    1.35766362958979
H         2.07460044472146    2.00621696553246    0.38183563858812
C         0.95795142916445    4.41927414534782    0.45332290709672
H         0.88738774887635    3.90937912454500   -0.50791475539934
C        -0.39173214121805    7.39047088002328   -0.40521562760220
C        -0.94562559683141    8.17417905193163   -1.51038962343444
C        -1.20634590161233    7.59706803028271   -2.75242049213260
H        -0.99928545392982    6.54856405676620   -2.89281828054697
C        -1.72288291493405    8.36780063408944   -3.77454352541283
H        -1.92456268663701    7.91602686797692   -4.73514131882606
C        -1.98572521814701    9.72172652855268   -3.58855272986069
C        -1.72077296314938   10.29084924084243   -2.34500752860543
H        -1.92068455317029   11.34137118693976   -2.19067056273939
C        -1.20793356287677    9.53148227184526   -1.31479939160716
H        -0.99657901597378    9.96754761285794   -0.34801509821096
C        -2.52351472352507   10.56443005367325   -4.70194634366502
H        -1.73727752130206   11.21325949630187   -5.08818097502494
H        -3.33186835600305   11.20035029587346   -4.34670323398047
H        -2.89021828842215    9.94824295551473   -5.51857313255178
C        -1.89015784909262    5.13301965871976    3.40357313282425
H        -1.81628629723897    4.17579181828395    2.88588553956692
H        -2.88838766705407    5.22428723056679    3.84418268047793
H        -1.13589908731697    5.17879590641238    4.19648441737771
H        -1.68479976192328    7.00266766979032    2.90997634697993

