91
CSD_code = GELYUT | q = 0 | S = 0 | Stoichiometry = C34H38N14NiO4 | MND = 6
Ni        1.81382993475244   10.48535611030426    4.38626030248258
O         0.88096558461508   12.18638761330908    4.78621927199715
O        -3.25588143965772   10.90223657499111    3.17438317419565
O         3.41264198193403   11.46220727776007    3.89894349855359
O         3.24314506091391   14.63358055451406    7.25397342189016
N         0.98206683444320   10.82035675123887    2.61232020698595
N        -0.71388616579521   11.07097008792803    1.19384010128678
N        -0.42806981596620   12.13340183507195    4.69513028267489
N        -2.34938754103017   11.37429062470438    3.91557595273402
N         2.63822429788300   10.56011781792172    6.22384905331378
N         3.68485651984163   11.50597249155207    7.94631420685569
N         3.49951620948361   12.61675775689502    4.47772205700974
N         3.36156775198673   14.09115702258946    6.11174756611426
N         2.72114416983006    8.87225175368870    3.92521046980851
N         2.65889385487650    7.16325466641739    2.22867626880036
N         3.51726762765438    6.64335773093287    0.00861752540565
N         0.30248674680061    9.42123540600657    4.94641533899201
N        -1.33188118184408    7.82509857898532    4.20361556256724
N        -2.25950622402017    5.60112958774956    4.55552411889484
C         0.37604423745378   10.68005869110051    0.45291657305016
C         0.54531989193913   10.45205292179866   -0.90723765390975
H        -0.27167263272328   10.55212625864919   -1.60426962462265
C         1.80561345857952   10.08890533984621   -1.33101578032061
H         1.97365699189246    9.88905457163967   -2.37760580212842
C         2.87954904015334    9.98074060150649   -0.44130963306500
H         3.84804113688317    9.70213063065310   -0.82486463506798
C         2.72420268395604   10.20805956998621    0.90736001846112
H         3.54547057316086   10.14342515124429    1.60314895776157
C         1.44689717780668   10.53581239573470    1.35814797451893
C        -0.30685127141856   11.14313367591678    2.48514184745903
C        -1.98708921757774   11.43081190954487    0.63090082241946
H        -2.78180073436984   11.23122171475678    1.35383014612687
H        -2.15821670519572   10.83307950375823   -0.26169809847856
H        -1.99582667844103   12.48935781196450    0.35904761845845
C        -1.07539381837246   11.56198221528851    3.63889588476999
C        -2.67238582882916   11.78380004227999    5.30639659321058
C        -1.30782908850117   12.28698413601604    5.86389800192261
C        -3.24160627506387   10.54435174672479    5.99724400680219
H        -3.56563530566964   10.78060852035479    7.00597746701760
H        -2.51461317241079    9.73886992826085    6.03005260646734
H        -4.09808292438890   10.19628624993539    5.42376111206763
C        -3.77449577940984   12.83899960215184    5.20917704090881
H        -3.44995856559879   13.71776692102720    4.65912174540883
H        -4.10987410776331   13.13685130616073    6.19739974107352
H        -4.61272074822110   12.39805897915932    4.67343963706004
C        -1.29214820664999   13.77305488342325    6.24681573696120
H        -0.29810401271154   14.03433785317096    6.60154733078190
H        -1.99984872480900   13.96600627519363    7.04689512576444
H        -1.52851223145543   14.41186083266789    5.40015171141777
C        -0.75890829019530   11.49062350652404    7.04899056883036
H        -0.58524413584832   10.45225549483336    6.78237605641331
H        -1.44192429689692   11.54584471853111    7.89067775931258
H         0.19531829075824   11.91993131850698    7.34650573038416
C         2.66546492213449    9.64985410947812    7.24275961503808
C         2.19092715667554    8.34246714855363    7.31956938907529
H         1.70298586222019    7.89282716472085    6.47107393289743
C         2.38635499261889    7.66492621626922    8.50163022969555
H         2.03414924044703    6.64936516985632    8.59515933047620
C         3.03844726905292    8.25622787306790    9.58895609866022
H         3.17150371562566    7.68427190905012   10.49443680375496
C         3.52309059442537    9.54523995064770    9.52896620739572
H         4.03557433766886    9.98893268598252   10.36823715834148
C         3.32945092242192   10.23905478238070    8.34108090297834
C         3.25329282974088   11.65204415693201    6.66940726666910
C         4.47909281980669   12.42613051045015    8.71447847446141
H         4.16725782204854   13.45130216983646    8.49601619379585
H         5.53830132346361   12.30878258997371    8.47359734595853
H         4.33154088823176   12.22317752817521    9.77276167461760
C         3.42336157771642   12.80746644550960    5.81708484760023
C         3.29720166810227   14.91566197147253    4.87668554048317
C         3.59811411952835   13.88647535726102    3.75172003067723
C         1.87170148942908   15.47192532269326    4.84082851303376
H         1.15554342620626   14.65718445329163    4.79168383605125
H         1.73303035541901   16.13429787363754    3.99222007644593
H         1.69706999014411   16.03185665202536    5.75725523580089
C         4.28498692793689   16.06873657685759    5.01048655291328
H         4.02967979073617   16.63037970420240    5.90660683602212
H         4.21668028732855   16.72733153360862    4.14990219807306
H         5.30761462976465   15.72033200060373    5.11485674688521
C         2.62518840290545   13.89514983857480    2.57596577766822
H         2.92132029240408   13.12273855193904    1.86974695676962
H         2.64550500268694   14.85768836777148    2.07323726705681
H         1.61571796034124   13.67515633275770    2.90688926419924
C         5.03161145746786   13.95282192905709    3.20686630687344
H         5.76332981902936   13.87650883770011    4.00711577332571
H         5.19542621828928   14.87417592188240    2.65623664500909
H         5.18402274145041   13.11186399911623    2.53426789772314
C         2.68770901562263    8.10789147393673    3.02762236238543
C         3.14553496712696    6.92430024253739    1.06323263343424
C        -0.41210932669898    8.55610787000612    4.57651930570850
C        -1.77634044629726    6.63717925729349    4.41568380425750

