66
CSD_code = GELYOO | q = 0 | S = 0 | Stoichiometry = C28H31NO3P2Pd | MND = 4
C        12.24628577417693    0.60936711906980    4.91992147293953
H        13.28567302258694    0.39067837060915    4.64874729073312
H        11.63938608567915   -0.19339647849036    4.48991158764276
H        12.17241753805439    0.53127048088242    6.00970928612243
C        14.02691487573564    3.76723145165226    5.62830558119111
C        14.67882538294770    4.54716555407430    6.57504053176208
H        15.67178713552284    4.91910187034670    6.37689916100512
C        14.03213227467184    4.85010748675788    7.76100405656939
H        14.51632639004059    5.45802704262095    8.51043519652272
C        12.74933486867726    4.37216343114352    7.96416653499595
H        12.21006855804267    4.60244570104693    8.86963637424840
C        12.15080043121231    3.59681799365493    6.97817638810301
C        14.64542887539449    3.43179236315302    4.30706012886567
H        14.04886846444784    3.90632978165135    3.51499465372521
H        14.63493703499791    2.34557261968855    4.15564768094907
H        15.66800329512262    3.79734820591558    4.24677510937224
C        10.76180941215589    3.05839447277223    7.12668091221455
H        10.23991691582296    3.13788510762448    6.16192800046657
H        10.21109873887738    3.60894776245060    7.88584440844352
H        10.79939579743323    2.00561730497735    7.41859823195114
C         7.95168453849547    3.80035575006893    4.05611988717715
H         7.43792998671548    3.06769278850315    3.41950964712467
H         7.73744076379750    4.80860052992837    3.68726933552558
C         7.48150467792822    3.66792593638202    5.49720988281667
H         7.72473842442230    2.68137544382804    5.88578213144239
H         6.40492908706388    3.80974061141223    5.54302878860366
H         7.96318355873003    4.42535683903703    6.11072501588036
C        10.11872218779688    4.12096516280303    1.44315657232435
C         9.84289926499861    5.02047728596612    0.42997610887777
H         9.65895991961327    6.04933808801684    0.70090746924957
C         9.80593020081581    4.59523753163829   -0.88659330902749
H         9.58490570216664    5.29660862119810   -1.67799423583533
C        10.06640219173949    3.26758566275100   -1.19069597602108
H        10.05130301933076    2.93504662715257   -2.21892142800263
C        10.35230682187880    2.36342280735203   -0.18291022126820
H        10.57790530797199    1.33342792724499   -0.42712270623575
C        10.36421511875571    2.78525842433420    1.14445848182927
C         9.14152641427168    0.83082743834119    2.84574144094430
C         8.81627156567172    0.57523847539517    4.17444519837742
H         9.51221158872355    0.89078497821144    4.94876856325402
C         7.62123689198250   -0.04597333502994    4.48781211064819
H         7.36596890095627   -0.24496663262205    5.51876572155944
C         6.74403311803875   -0.40836527247927    3.47760168339412
H         5.80866719056115   -0.89059710098266    3.72104459599053
C         7.05864799052012   -0.14097968052444    2.15508116929591
H         6.36769454436310   -0.41268355559726    1.37007426108058
C         8.25330891008477    0.48084895411281    1.83502112295481
H         8.48832186168988    0.70677959926361    0.80398567259020
C        11.77413480047783    0.43393473911895    1.68578368079706
C        13.10214791498931    0.83626007801435    1.55705074833105
H        13.38835598451642    1.81216422066276    1.95415897532771
C        14.02373303967947    0.01099662497959    0.94415244319431
H        15.05295958597092    0.32274544600247    0.84033693335052
C        13.62378316934131   -1.22889755203296    0.46652574997701
H        14.34212622959964   -1.88070891470865   -0.00853869668456
C        12.30826657584722   -1.63700621559704    0.60496345641473
H        12.00297918973958   -2.60654681479344    0.23858438739987
C        11.37914219374147   -0.80865654128344    1.21404332212790
H        10.35362036605595   -1.13175412930022    1.32895444899492
N        12.79871298741190    3.29827017499023    5.85273097665289
O         9.63130850186807    6.06324495623978    3.31568135160697
O        11.66003952336425    4.52716849085183    3.63523374572708
O         9.34515804883967    3.57567751253740    3.96604134063779
P        10.72450238023183    1.66245636525729    2.52575741411884
P        10.25102736526783    4.73846481831504    3.16468538738255
Pd       11.79674152239070    2.49498919344428    4.27852476224730

