40
CSD_code = GELZAY | q = 0 | S = 0 | Stoichiometry = C16H19CrNO3 | MND = 9
Cr       -1.74116454780446    4.59912971175959    3.80344107528524
N        -3.45960419481549    1.48630895189109    5.94626937910669
O        -1.47726605233001    6.62636645682315    1.63998087668870
O        -4.01284190290664    3.74169275786840    2.08664092192358
O        -3.87523171191536    6.51376881175902    4.59427153445378
C        -1.50441076718131    3.58674283693372    5.81487382669176
C        -0.56957886895929    4.64454273494705    5.74469788218208
C         0.35772176133138    4.70131531498749    4.70842781002449
C         0.34328832762896    3.71103828648347    3.70458362213946
C        -0.57694928605691    2.66809049845267    3.76887317237784
C        -1.50481323875537    2.59191415530677    4.83569285702652
C        -2.40143437607451    1.38459239534379    4.93910153346015
C        -3.78395831277931    2.84681836600619    6.35782659897984
C        -2.51145042569384    3.50366932537092    6.92356537393206
C        -1.52693137914124    0.16205056282098    5.27710484893351
C        -4.62271382672971    0.73090943936569    5.52440047270990
C        -4.89767873950040    2.86587511716576    7.40386945102491
C        -1.94397148093764    2.73274853103953    8.12071978271951
C        -1.52898006985286    5.83267610126574    2.47829948292073
C        -3.10783679372820    4.04540035338520    2.74083056460786
C        -3.02566746194495    5.77628835169453    4.32309426734999
H        -0.53640314606961    5.37232568040711    6.54815144841795
H         1.12033295436380    5.47062045636459    4.69596891208736
H         1.09648524626045    3.72470766601862    2.92562997341704
H        -0.54362975723578    1.87197951364865    3.03378153499899
H        -2.85049769899251    1.22355195467282    3.94101691881034
H        -4.11456345263538    3.45713330237061    5.49049827367358
H        -2.76278512051977    4.52113263493654    7.24484026629532
H        -0.82685254575168   -0.04813721810366    4.47227805460254
H        -0.96489550885014    0.34745406932812    6.18952295059113
H        -2.14895850762330   -0.71474278378197    5.43241778047395
H        -4.30495823246445   -0.24059498954209    5.15115674598787
H        -5.28010832770366    0.56079748254693    6.37293057352382
H        -5.18533304039209    1.24216974282721    4.72871493289305
H        -5.86537992884552    2.67695275128014    6.94939865843637
H        -4.93648161557838    3.84789183791616    7.86872881999124
H        -4.71475228503412    2.11883115877443    8.17100339396404
H        -0.94349775931260    3.09000916939144    8.35952100899505
H        -2.57285527244836    2.86988251309734    8.99549404332393
H        -1.89799265301999    1.67269599717583    7.88888037497734

