61
CSD_code = GELZEE | q = 0 | S = 0 | Stoichiometry = C24H26N4O6Zn | MND = 4
Zn       11.28473102175425   13.02566430127974    8.48572258010154
N        11.85827984823822   13.19004112973134    6.59564493008665
N        12.50953519086497   12.47329281047278    9.94190643325734
N         9.11178236822673    8.57850817805427    3.78426236239491
N        13.36220642276179   17.52110550471009   13.18319242725381
O         9.97108988755204   11.77116209487384    8.20502657115241
O        10.83776852247340   14.66362264606132    9.19133177129976
O         8.31831859842730    7.66599170733237    3.90587096648974
O         9.73101468425564    8.81868502053146    2.76443330458921
O        14.22154239474879   16.96534396012662   13.84180898069846
O        13.02313229749213   18.67839004633317   13.33496173303745
C        10.48774908892149   11.30442960062531    5.91169453818508
C         9.80039071946135   11.07029381290097    7.15084176918214
C         8.87433020378066    9.98648033850263    7.19242010107463
H         8.35627269571890    9.82487412007687    8.12500545660641
C         8.64992933089745    9.18204592621004    6.11633748312914
H         7.95284989941244    8.35886549181219    6.15845735941813
C         9.33845479306440    9.42141520653399    4.91442473869414
C        10.22915962514796   10.46984317095691    4.82035827964336
H        10.73656495787987   10.63405449082459    3.87992733274083
C        11.41410448442250   12.37297141564922    5.70975012366316
H        11.76683573563080   12.48252140892941    4.67840633503339
C        12.75635734608400   14.23955939144102    6.18152888883382
H        13.04301260691311   14.08401496276204    5.13174639702305
C        12.10634565376276   15.63354028383112    6.34373744090399
H        11.18448218265375   15.54811750953161    6.91819617460160
H        11.85721036056159   16.04431762998579    5.36625849809664
C        13.13329515099512   16.50820429249757    7.07766344030068
H        13.19096676219630   17.50955188642446    6.65494497838095
H        12.86196042962397   16.60010806820313    8.12993619315936
C        14.45382922839449   15.75072303914057    6.95434416753221
H        15.16705780460633   16.02444867398906    7.72959466953763
H        14.91068009164153   15.93864624455216    5.98144802315277
C        14.01820804108231   14.29371509995429    7.05033199387943
H        13.75097437755768   14.05816322070977    8.08285923255716
H        14.77930304720498   13.59061405910963    6.71482253490863
C        12.45394830964961   14.67739729246328   10.96108903557601
C        11.44272586809478   15.27590142593583   10.13508618549241
C        11.10297769609387   16.63615359242149   10.39637036576965
H        10.33520051624737   17.07308327346751    9.77686811005843
C        11.71563554429036   17.36266920895087   11.37216792328323
H        11.45814538460381   18.39436832429485   11.55799723916854
C        12.71079598472681   16.76297743478290   12.16342200707493
C        13.05817602277040   15.44382321281460   11.96204855322228
H        13.82007283439224   15.00778912376358   12.59309293203313
C        12.86589784805285   13.31467620280116   10.84464556834790
H        13.55962190580717   12.97875949344975   11.62312390245507
C        12.99099992294009   11.11704359119326   10.03033302479350
H        13.75332549898368   11.04890995862628   10.81938669305478
C        11.83772993593281   10.13177355613438   10.33323620206788
H        11.91000618234065    9.77854529852146   11.36101631402712
H        10.87912968860067   10.63680142121415   10.21675793202060
C        11.97720937585958    8.97795066637117    9.32924797568884
H        11.81419678958587    8.00935782362292    9.79834741328881
H        11.24942438170518    9.09180378695897    8.52527210287701
C        13.38952799089695    9.11673516124328    8.76444736496028
H        13.49829763598639    8.64409293009627    7.79001160350753
H        14.11723711982403    8.67437640663420    9.44670926496517
C        13.58482536403768   10.62690194951628    8.70524166734845
H        14.62572556694545   10.92428192692832    8.58578893126209
H        13.00284077722168   11.04000019313388    7.87839347706179

