119
CSD_code = GEMHEM | q = 0 | S = 0 | Stoichiometry = C31H76N5Si6Y | MND = 4
Y        -7.06153566472101    9.28308750756917    4.77784483466851
Si       -5.87243258182403    4.52706392980785    3.20482576658584
Si       -8.53806741719704    4.36112733911364    4.88667972842157
Si       -4.70830934329152   10.51942250772937    2.53939487183652
Si       -7.31592013090889   12.00247112688236    2.77497206682482
Si       -6.66863965562935   11.23863025239190    7.51784056322475
Si       -9.36634925889406    9.92359597438868    7.29740396290534
N        -7.82601589200396    7.45724110362975    3.62840658562361
N        -6.40642643777617    7.14959801724544    5.31689003903836
N        -7.18762093013714    5.20931083440098    4.14857233474106
N        -6.27880347497273   10.70075245950895    3.22533287798303
N        -7.77892455914826   10.21117326102157    6.69066163652970
C        -7.13939610868969    6.59513902943648    4.36332873097701
C        -8.50629617682636    7.06167766542325    2.40855854107638
H        -8.32034782589904    5.99816049689853    2.20454253883370
C        -7.96476750932351    7.90278816599645    1.24521317000516
H        -6.89816659531495    7.71131153991158    1.13207620656191
H        -8.08262551861369    8.96164925176761    1.50009409994109
C        -8.69100397996035    7.58685444715997   -0.05867826359500
H        -8.29700408045639    8.21608145946601   -0.85954140525361
H        -8.50769909465358    6.54463117905281   -0.33277220991086
C       -10.19214690281798    7.81058169695714    0.09032330014321
H       -10.70318964291060    7.55905513660660   -0.84169704164281
H       -10.38191657510092    8.86465544401749    0.30413220275112
C       -10.73632023596473    6.95728054350122    1.23139950365843
H       -11.80915084172191    7.12726537424052    1.34733997561921
H       -10.59033743005689    5.90073558938692    0.99200075763310
C       -10.01800370417632    7.29290336186114    2.53488081274832
H       -10.41133354124925    6.68847169804848    3.35395051172814
H       -10.18910862301330    8.34533901323545    2.77917942005818
C        -5.73940483228640    6.35996474697281    6.33654535208820
H        -5.86558551764865    5.29005179970719    6.12706162831724
C        -6.35437367198570    6.68226228590447    7.70513618606122
H        -7.40296348061006    6.38436522056457    7.69936838016167
H        -6.31578749778826    7.76720576937858    7.85341108897278
C        -5.62398012211446    5.96237670331502    8.83481612788606
H        -6.06943717540931    6.23906887119016    9.79273516204274
H        -5.74149692886355    4.88240899508390    8.71231817433513
C        -4.13890257317691    6.30758675287183    8.83006068699651
H        -4.01439124481076    7.37740203231525    9.01105591088527
H        -3.62653592625077    5.76864530347391    9.63010544356398
C        -3.52621256310414    5.94789527073205    7.48072153088041
H        -3.61450158687847    4.87060316436718    7.31951483209699
H        -2.46370787121305    6.20146904904746    7.47198217030496
C        -4.24283674237770    6.69487642592976    6.36035454582628
H        -3.79952314535484    6.44957735834999    5.39278809902882
H        -4.13258264161593    7.77202231041729    6.51846234320088
C        -6.59979964839387    3.32223537641480    1.91761748423075
H        -7.41055276631686    3.75830142490165    1.34372663055860
H        -6.97354527447177    2.41971605172791    2.38861870549488
H        -5.82619942408194    3.02332569470618    1.21779898031322
C        -4.63319477236257    3.53109257532951    4.26772269743690
H        -3.98282221836899    4.16938043360751    4.85668973411670
H        -3.99914449054205    2.93230518967018    3.62046581134400
H        -5.13232503172510    2.85132349733957    4.94971066966649
C        -4.93706861938198    5.92515829598301    2.31047814856311
H        -5.18796448417640    6.89202797713446    2.73735461124782
H        -3.86174291878358    5.79543855364382    2.38854804974300
H        -5.18156154896448    5.95332279415970    1.25269363187495
C        -9.71169981534467    3.60380907122631    3.58303091238010
H        -9.23971648341325    2.79194073483159    3.04129298531144
H       -10.05659057722949    4.32953108920867    2.85456963392741
H       -10.58850430025581    3.19430591104250    4.07578501563720
C        -7.86922191378072    2.92249378971659    5.94859365048319
H        -7.36763071357666    2.17882184131986    5.33844830994175
H        -7.17221496800562    3.25520579710532    6.71134342900039
H        -8.69099870362293    2.42432604487790    6.45285099035000
C        -9.52929429172040    5.55151524613447    5.99739027390179
H       -10.55257592899324    5.66060095888284    5.65077032174108
H        -9.57696588093756    5.19108966627571    7.02093202929507
H        -9.07876962108646    6.53976979246273    6.00926236412218
C        -3.72962056628317    9.30788583683402    3.66233478529180
H        -3.05388501781117    8.69037425494808    3.07909465896875
H        -3.13089555385266    9.83561278315553    4.39814261826438
H        -4.41758742930119    8.64270929966698    4.19375934074663
C        -3.70218753148321   12.14504427413579    2.44278643133308
H        -3.71723738571442   12.68394204806642    3.38392979676661
H        -4.11298979066001   12.80093879169551    1.68344808399880
H        -2.66476499227887   11.95508437775257    2.18655438110309
C        -4.68372536942949    9.78467835828669    0.76532563202127
H        -4.83612146826935    8.71050714766497    0.77075361764098
H        -5.46000166738931   10.22381848464021    0.14962400069358
H        -3.73131745819278    9.97533605032855    0.28031007935520
C        -6.76559642962853   13.71685409015932    3.43205294413115
H        -6.36865168353924   13.64146302316753    4.43908064742177
H        -5.98974963555650   14.14248563099879    2.80570038152509
H        -7.59165824876897   14.42097275245952    3.45281876939481
C        -7.57892507946625   12.20804111579306    0.88733660467201
H        -8.29551981188962   12.99410670795315    0.67165320014460
H        -6.64528582644596   12.47475432882837    0.40456875654633
H        -7.93957296904955   11.29629287981827    0.42213415763378
C        -9.01579941485523   11.60163754100337    3.56844640567675
H        -9.37906232789545   10.62458714856201    3.24443470289924
H        -9.76933140563536   12.33339771888163    3.29108334834972
H        -8.93924840586661   11.60765038395529    4.65662094229523
C        -6.38659152589606   10.79325067086706    9.36112562542280
H        -5.59182514607550   11.39065871939763    9.79626730473074
H        -7.28753190391687   10.97980420650291    9.93522659206163
H        -6.12488584063567    9.74834695511093    9.49343027194875
C        -4.99657550933047   11.03591915911096    6.60047402982816
H        -5.08347951201629   11.36959807459341    5.56543359120438
H        -4.67030811423827    9.99465593916987    6.61000224124042
H        -4.21081555079921   11.62320890106518    7.06723435789607
C        -7.12220809871143   13.10005157456429    7.47457587759903
H        -7.87196805179035   13.33512442401627    8.22148271413909
H        -7.52418617658368   13.38350082280657    6.50741875908308
H        -6.25761084046726   13.72648046421305    7.67116274279586
C       -10.27802343948594   11.49475182558825    7.90108189445970
H       -11.32804759342367   11.29557926229119    8.09003068080426
H        -9.84146911364934   11.85608080426215    8.82537165988269
H       -10.21898092580270   12.29820332022560    7.17486597366575
C       -10.40318674774373    9.18249650683032    5.86106354483949
H       -11.11218885910741    8.44719286911923    6.22763916609365
H        -9.75070346036608    8.68571148746992    5.13572179271160
H       -10.97110332881376    9.94717550521047    5.34027200053764
C        -9.45345379119014    8.68063106623889    8.75703990817197
H        -9.17988717657865    7.67739932639926    8.44917272888537
H        -8.78283906963040    8.97178373722826    9.55720289058095
H       -10.45690710396080    8.63524407478585    9.16922051145292

