55
CSD_code = GEMJOX | q = 0 | S = 0 | Stoichiometry = C28H19Cl2NO2PReS | MND = 6
Re        6.15843516014228   11.92644063186170    2.86524715290840
O         6.75436189644597   12.00738821185718    4.40229427863453
Cl        4.44786000252042   10.36503638698137    3.52144057826228
Cl        5.54998078346756   11.74438943276541    0.84777344331327
S         8.16510264044477   13.21644563724522    2.05383741871757
P         4.49720785325552   13.60084864487770    3.40416011871169
N         8.09158591925418   10.64912174051860    2.25389371638071
O        10.04798272269207   11.50972587778379    1.34609847586584
C         3.23850282206409   13.79945399431689    2.11920136395232
C         3.02370087208848   15.00848628320992    1.46725097261764
C         2.04508922626396   15.09355574987816    0.49151869209909
C         1.28454893179255   13.98264263206839    0.16627653674210
C         1.49504417200126   12.77855230094958    0.82158065728203
C         2.46921060998719   12.68173818502319    1.79674362008129
C         5.32462675839557   15.19429708688716    3.60427152772724
C         6.07415765417613   15.68293672371499    2.53440966442179
C         6.75817644501578   16.87624754449209    2.65921097505663
C         6.69909029562628   17.58531909516226    3.84954945782962
C         5.95578066204892   17.10111591905009    4.91343235388149
C         5.26973808709067   15.90452397423518    4.79834541243635
C         3.58135853599988   13.29330971111535    4.93496747893881
C         4.19862081161198   12.61177907625553    5.97988642293856
C         3.51115537635111   12.40299656684691    7.16122541002766
C         2.21415764908056   12.87192631193206    7.30258574925881
C         1.60137830085822   13.55323557345688    6.26313792831751
C         2.27990974854178   13.76699072781369    5.07681805547649
C         8.86358815433852   11.66559873255436    1.86266275838333
C        10.80694610398624   12.57725606856125    1.06315233637824
C        11.62330895203693   13.49133882778789    1.09580405421825
C         8.37517899300230    9.35040078773910    2.29247097548507
C         7.33185867756321    8.46708973156117    2.70534277972407
C         7.50764642532685    7.13447793805194    2.78567074397702
C         8.77907823152800    6.52776694159249    2.43952799329178
C         9.83424809885862    7.43078342404455    2.03363409081839
C         9.63842246108520    8.76412644125549    1.96875311996914
C         8.95478150627140    5.21179654743266    2.48586655203323
H         3.61497761190479   15.87631927735506    1.72179969220843
H         1.87962994294974   16.03125787281922   -0.01777086197294
H         0.52756086488689   14.05442550222040   -0.60030752676287
H         0.90246547284272   11.91248953686609    0.56827782871133
H         2.64821714453092   11.74492184318608    2.30859945243449
H         6.12459756610405   15.11670559002046    1.61391558488894
H         7.34653438256129   17.24737892871866    1.83420365241154
H         7.24058481236449   18.51381933124302    3.94932553819423
H         5.91594939920418   17.65286449760968    5.84068096986272
H         4.69720388078041   15.51853114442481    5.62938614364444
H         5.20748930239305   12.24003733636310    5.84658919967745
H         3.98459731107403   11.86832926954021    7.97035862038813
H         1.67695337922003   12.70213620156521    8.22362614194110
H         0.59022550353303   13.91550486601230    6.37413335083880
H         1.80366197051728   14.29433264867703    4.26195670776508
H         6.37685277986282    8.90111065848325    2.97070782922967
H         6.71280023369164    6.47959975854861    3.10267562863550
H        10.78911964579812    6.99491196022857    1.78594887218979
H        10.45795725452240    9.39718431522916    1.66605030957926

