68
CSD_code = GEMMUG | q = 1 | S = 0 | Stoichiometry = C23H36CoN6O2(1+) | MND = 6
Co        1.25852017779431    3.31635261608709    1.72973186397283
O        -0.73917006051050    5.30231736739708    1.96968119831980
O         1.01024334745376    5.13976745075181    3.74991214844059
N        -0.16618767776874    4.36601744956053    1.20982573817674
N         1.73931410688146    4.22448625369190    3.24358074646103
N         2.78432372015418    2.26158199857947    2.15531126278039
N         0.87449740067152    2.43287226305305    0.05901080385712
N        -0.00780779894243    2.09632330624256    2.90902433081049
N        -0.77745160251240    1.24804007001693    4.81731410269893
C        -1.78011390737412    4.93788015459031   -0.55065283830158
C        -0.64331886281230    4.16042224784601    0.02201640219252
C         0.00897178778097    3.06467857157694   -0.66366595032375
C        -0.33786991129715    2.70506467120889   -2.06988631852664
C         1.55644123343582    1.27822154127053   -0.46137315407784
C         2.12566009681108    0.42252748003161    0.66573770930790
C         3.25535537664059    1.11101873101003    1.42618536414349
C         4.76529116141317    2.16026681908235    3.62332471608726
C         3.46643603906619    2.72843660472270    3.15665641904833
C         2.85764224676989    3.84774519595343    3.81165456712239
C         3.38443526194029    4.50903908746424    5.04553670805839
C         0.22956333130021    1.86676585878305    4.18377528570239
C        -3.01858944884897    0.46490296312621    3.97468776193097
C        -3.79785768283208    0.40594675484967    2.83584966723245
C        -3.31019403262381    0.92296648967451    1.61386043119235
C        -2.05849599294783    1.50065760075871    1.53328276979914
C        -1.27000468044731    1.58271931066592    2.67735540510210
C        -1.76483569942137    1.04988600333095    3.88351186461954
C        -0.83578339188651    0.87689264551556    6.20244970213701
C        -5.15867683571971   -0.20986289461321    2.89831665683967
C        -4.16461372464429    0.84481666826590    0.38701711428853
C         2.48250247094872    4.60155138419005    0.75100711747071
C         2.18552229478759    6.08786329962602    0.85929852047764
H        -2.14914220973876    5.63905787525207    0.19314306088591
H        -1.45511415267568    5.49748486599703   -1.42704045339988
H        -2.59367845492167    4.27737211097437   -0.84543172461842
H         0.56770187413719    2.64235845084720   -2.67241901662215
H        -0.82260632738221    1.72812209202629   -2.10875728144297
H        -1.00311320073809    3.43796870403748   -2.51262696824991
H         2.36905449029298    1.60397901559501   -1.12410760984509
H         0.86718625166601    0.66479098751675   -1.05322648209528
H         2.50927937276115   -0.50518558322827    0.23979455687991
H         1.32232210812048    0.17555729272448    1.36158646992855
H         3.70152169430695    0.38470211169434    2.11508342370639
H         4.03384223194380    1.42615433831666    0.71857135191366
H         5.46031681632236    2.07931731951388    2.78863359823935
H         5.20979120329171    2.78536136751255    4.38989255689490
H         4.62267115720971    1.15908297174017    4.03172485061925
H         2.66179053130875    5.25190062840227    5.37666250011569
H         3.54545374129971    3.78912486597907    5.84633294779440
H         4.32752649648924    5.01309031734301    4.83881617490125
H         2.47018567695572    4.32599774255165   -0.30601342405912
H         3.49555557924529    4.43333733469577    1.12241630995982
H         2.98966984355147    6.63722583985354    0.36569039958938
H         1.25598944000671    6.36419480551472    0.36772865504241
H         2.14777440736833    6.43245036116590    1.88961599654342
H         1.13524391214015    2.13127081890877    4.69583529905211
H        -0.97275942366234   -0.20180589766097    6.29810670211338
H         0.08954575649510    1.16560140642329    6.69657216609696
H        -1.67179636332383    1.38053035476078    6.69074085218078
H        -3.37803512721571    0.06724417670494    4.91081580673651
H        -5.23070265117560   -1.05518696127191    2.21560044293083
H        -5.37933692494210   -0.55804445560657    3.90325648069636
H        -5.91969837474300    0.51284044112947    2.60808690920722
H        -3.65252857011672    1.27240570795403   -0.47104842856794
H        -4.41773956860573   -0.18930936639011    0.15876121210664
H        -5.09805833974656    1.38510702670287    0.53660470867350
H        -1.70417490819550    1.88013567987067    0.59109601726010
H        -0.12368673099892    5.38979928816824    2.80796382180817

