61
CSD_code = GEMROG | q = 0 | S = 0 | Stoichiometry = C29H20N6NiO3S2 | MND = 5
Ni        7.10190869980483    1.78477966690941    9.96273097867268
S         7.33464388798171    3.55893339357211    5.94137532853332
S         7.62501989566188    5.30880118430085   12.70925388385384
O         9.25091243619572   -0.68358600971793    7.36413959357088
N         8.19918376284827    1.27479330455120    6.89350190933742
N         8.47529490232540    0.46298357603671    9.13017874804774
O         4.95466261302141    1.17287537339263    9.58894025109057
N         6.94983339971658    2.68953006056085    8.35589288206250
O         6.60285022938625    0.64566766720531   13.76904997606882
C         7.53471528881082    2.35831484616545    7.21255650399056
N         7.95222123332881    3.40420375599994   10.97010685753787
C         8.57948844643718    0.39898985312772    7.80420288324523
C         6.41295756083909    4.54884900649116    7.04759952249767
C         9.17716837447881   -0.62538349045895    9.60345466897770
C         9.50290109887592   -1.04704528148499   10.88514338561837
H         9.20758393382575   -0.47603129335666   11.74939275173336
N         6.89423252828851    0.92098427839199   11.56662305730610
C         6.90111171397359    1.50171087630622   12.77113021823351
C         6.29788185317434    3.89906137961031    8.28713124311427
C         9.63994762598575   -1.34542001558873    8.48782791761062
C        10.24018625005762   -2.20958570967016   11.00621744762727
H        10.50455298763135   -2.56322009329630   11.99129300114815
N         7.08648168217534    2.76102559673186   13.09159135980378
C         8.49568601656953    4.53040214050741   10.39940907270877
C        10.65783215970855   -2.93365022528841    9.89315636861159
H        11.22952911375416   -3.83776301409888   10.03472184951597
C         6.54810175597907   -0.39432184833449   11.78231642893593
C        10.37417045968118   -2.50740799960873    8.60600674172856
H        10.71433138970703   -3.04362285300429    7.73545859334236
C         4.98544551406414    5.73341106985615    9.08038036153046
H         4.41949193809441    6.20674998303849    9.86838631459250
C         5.55172924675867    4.49523558162876    9.30220429379966
H         5.43220502422499    3.98830351473531   10.25187851466628
C         6.34473776488000   -1.46441267899793   10.92177458594142
H         6.45162268814402   -1.34363604298876    9.85529972184961
C         7.52033073798146    3.62856061702720   12.19892619270798
C         6.38015371661743   -0.55680090022401   13.16710740098295
C         9.17533854427394    4.59910238787343    9.18597710344887
H         9.35150953704228    3.69415064567581    8.62413239023476
C         5.83756096215966    5.78689461229973    6.82588456485080
H         5.94588858906622    6.27127882698379    5.86894922122340
C         5.13223161520629    6.37915959423327    7.85707541021053
H         4.68444531648217    7.34927615952321    7.70781999395499
C         3.77898971930967    1.44308314536882   10.32920086817157
H         4.06973205141353    1.56433980317687   11.37140319531112
H         3.07808296558067    0.60633758030039   10.25214482785768
H         3.29217873290692    2.36055664787028    9.98442214177677
C         5.99989467944052   -2.67771391141628   11.48671422979656
H         5.84066748490751   -3.53083638618433   10.84465690431399
C         9.63126808152385    5.82135801513074    8.73831432994142
H        10.14941758530600    5.87998569816279    7.79309259564490
C         5.85277383437043   -2.83007863902224   12.86219009046247
H         5.58510499459626   -3.79602954884962   13.26137484826676
C         9.44099256099534    6.97656848472065    9.48976967002551
H         9.79781123406910    7.92347195115211    9.11488291004152
C         8.36908651466878    5.69505603274321   11.17796800114569
C         8.82561583125286    6.92000964812074   10.72617038540386
H         8.70643871263647    7.80218999679038   11.33455536404080
C         6.03542909020050   -1.76672839457343   13.73225426157524
H         5.91589718857472   -1.87054022828046   14.79796310220025
H         4.72143624304619    1.07722860817477    8.65772277949957

