47
CSD_code = GEMREW | q = 0 | S = 0 | Stoichiometry = C18H19N3NiO5S | MND = 6
C         3.74306603700305   -0.59589613719875    5.55436435440764
H         2.70863419206220    1.75886774241459   -5.22273006539702
H         4.16760211286037    4.41488213149867   -1.28910972581740
H         3.87291146863153   -1.08492885860973    6.50766383271616
H         3.58946339770391    4.05575434188847   -5.52079082316476
H         4.18863952971464    1.33421119206255    6.35043764849651
H         3.25295888391381   -2.41992155074497    4.50299660928863
H         4.33684121371781    5.35628474362774   -3.57247706957959
H         3.89168979032971    2.52745908583226    4.19438584959409
H         0.46919071826876    3.19509703406851    0.07898793718564
H         5.80871179523461    2.56093247396785    0.15935106254001
Ni        3.06418822459018    2.72940286985538    0.97117896687418
S         2.41324788984717    0.23370790735987   -2.61109821769266
O         0.64206210342474    2.58678928222228    0.80967467420063
O         5.46260632355918    3.13254715802502    0.85591327393839
N         3.21009607661844    1.05316429870695    1.82749120169441
O         2.94555342285799    3.85140704934932    2.50796635618331
C         2.93060090167598    1.83017225459131   -3.09629512367408
N         3.16666642966003    1.90970685163264   -0.77074624119519
O         2.92014645060278   -1.15999067902578    2.02560639917837
N         2.63964408774515   -0.30792632272183   -0.06032622312513
O         2.67673068630208    4.54748287542146    0.48719630820362
C         2.76015721272017    0.66102083743202   -0.94132038190241
C         3.42606812108619    0.71542096935414    3.14784744767783
C         2.91565288946132   -0.09027827102389    1.20883716570987
C         3.77050198033869    1.46068304664918    4.26723837164469
C         3.31457289600429    2.57640831393315   -1.96750755325470
C         3.93076974757330    4.36638513016725   -3.42716283103977
C         2.44444466496089    6.18971558957045    2.23347353942254
H         2.54683828943613    6.90891150271104    1.42612740297351
H         3.13314627652368    6.42007739824571    3.04194251026717
H         1.43037225040071    6.23258218826808    2.62707058705704
C        -0.21921409066625    1.47162910023904    0.69528930392905
H        -1.26687810057817    1.78805751397130    0.72022577107345
H        -0.02053867890441    0.82855501542207    1.55064779438166
H        -0.03349442266461    0.90408531811409   -0.22161019965670
C         3.39727593762511   -1.35356298283663    4.44707402357677
C         3.92298479385577    0.78130184974974    5.46183470742626
C         3.24547020425870   -0.67413979942747    3.25587651293131
C         2.70333451476113    4.79922134149690    1.71931617461296
C         3.84365220162804    3.85190927417078   -2.14944515469668
C         3.51326574900559    3.63068516070385   -4.53165415552081
C         3.01633147799719    2.35024953766123   -4.37539274983909
C         6.27190555414723    2.99029556143140    2.00891714123120
H         7.30330957176410    3.28713243210175    1.79239418790381
H         6.25827580021856    1.96447920372212    2.38870371291352
H         5.85674342272364    3.65306902395277    2.76593568632197

