86
CSD_code = GEMXAZ | q = 1 | S = 0 | Stoichiometry = C47H28F4IrN6(1+) | MND = 6
Ir       18.35137431189422   16.52723437077334    3.63403306513821
F        19.72016224050914   19.62832136893036    7.62769676078030
F        15.35840985113191   20.34803365260438    6.06740695922410
F        17.01276873136514   19.05482007038077   -0.75092309630539
F        21.02718989342982   20.56194197784571    1.13923323265951
N        20.06387136351498   16.67778080436883    4.66814198876438
N        20.08305708250266   17.61078299037943    5.63402043584766
N        16.66659803795013   16.48748245046767    2.53859017569467
N        16.69881566159680   17.22142427329128    1.41574306212636
N        18.82019599321154   14.68636149749380    2.36985374712224
N        17.73585092471576   14.97410637039070    5.08610629248397
C        21.24458199369970   16.07245741741992    4.68954954680771
H        21.48102448370579   15.27827969567440    4.00847167365515
C        22.04199082317685   16.62927002344967    5.68880811983810
H        23.04347366103429   16.35738750713333    5.94795795462091
C        21.26767535757548   17.60978466261798    6.27113635004031
H        21.49737997963268   18.27905700964835    7.07409286544321
C        18.91045442901344   18.35860503114360    5.79610662770504
C        18.72934275635783   19.33879425163479    6.76584032660488
C        17.53505743948683   20.02486529441516    6.87206846773975
H        17.39993496605683   20.78474767521072    7.62333723484818
C        16.52740427906426   19.70146797281779    5.98104223474358
C        16.68172511358429   18.72862943669567    5.00450919583350
H        15.85327057973109   18.52970467195433    4.34342497093778
C        17.87823899632437   18.03871061943936    4.89350170444069
C        15.54969811042810   15.77115370048846    2.50361272899586
H        15.28393658252045   15.10856690482153    3.30466728960901
C        14.84734884409645   16.05093771312183    1.33256096769694
H        13.91082181728533   15.63800839342428    1.02157345406546
C        15.61124787869080   16.98311428162452    0.66250303579535
H        15.43432430113797   17.46927021786579   -0.27413630734410
C        17.79797129959371   18.07486126579491    1.26126827088866
C        17.93831755010246   18.98859265248090    0.22356282515248
C        19.02285705037031   19.84042360691380    0.16413329346570
H        19.12356856321293   20.55175741266957   -0.63800707538824
C        19.96354061695153   19.74780763280286    1.17328576013900
C        19.85739757441942   18.83328780498882    2.20831841770693
H        20.63970351509604   18.81373504200880    2.95052677453204
C        18.77635596204215   17.96537619913610    2.26788508004393
C        18.65836382578212   10.40994166333638    4.33311592669503
C        19.95276826196864   10.52081016610175    4.78860821103104
H        20.44112144337497   11.48300751010920    4.85529822347864
C        20.61878404311068    9.36016478929626    5.16211741165389
H        21.63452433163442    9.42226667684678    5.52100896553284
C        19.99344965541633    8.12562263352962    5.07843240454126
H        20.53135022159215    7.23802807843438    5.37391114614388
C        18.68964325697574    8.01444251729468    4.62076337544438
H        18.20826720034223    7.05110933526377    4.55776190377042
C        18.01850201184095    9.16625528754888    4.24553961404802
C        16.67233435109023    9.36983371098881    3.73106731901641
C        15.65057319419705    8.47446895220892    3.46211580117262
H        15.78308868453999    7.41844670876978    3.63791067333459
C        14.45385408746909    8.96401927565000    2.96223726404907
H        13.64694886936009    8.28024241027214    2.74818324937894
C        14.27694657347850   10.31954832904401    2.73097403774367
H        13.33740818362224   10.67711016732487    2.33869821207732
C        15.29630649253275   11.22471461333226    2.99873851327878
H        15.15810825992915   12.28138761564398    2.81485081073179
C        16.48351012892131   10.73887145888053    3.49895490253773
C        17.73018461798680   11.51724915174088    3.87191765954100
C        17.47763994604560   12.56304379649215    4.92993532175641
C        16.93889747413139   12.50339635189571    6.20038067413306
H        16.61855865979601   11.57178431570542    6.64050731264898
C        16.81601669911083   13.70883646211638    6.88849715402509
H        16.40047868281190   13.72164864933126    7.88318537167535
C        17.20975027484369   14.90748501829301    6.30625917225183
H        17.09439386279055   15.84486422293889    6.83123687331031
C        17.86425739412175   13.81813057273317    4.44955762065544
C        18.37867144941435   13.67850302949221    3.11443053636866
C        18.28807203634182   12.33769540090877    2.73534927477951
C        18.66985999279636   12.01334050949270    1.44591124228230
H        18.62439441485913   11.00121166420422    1.07462974141494
C        19.10659975812450   13.05712196232303    0.64382813812638
H        19.41533397171806   12.86616424533942   -0.37190909074011
C        19.18196552156808   14.37350322769803    1.12176005182611
C        19.67219638230538   15.43591639007352    0.23143895795565
C        19.08824532263408   15.61361971352286   -1.02046077389706
H        18.24939658747717   14.99790444440009   -1.31208630468609
C        19.56644430065275   16.58750108328282   -1.87663594907014
H        19.10310562566693   16.72807766189032   -2.84090615368621
C        20.64697997227660   17.37026604979900   -1.50310182465288
H        21.03289306450929   18.11534355700445   -2.18112054541755
C        21.23570965328577   17.19150241623717   -0.26273820286749
H        22.08346156896530   17.79404356315693    0.02440516664686
C        20.74260069843704   16.23891692794604    0.60988915495786
H        21.20350037393733   16.09359378778100    1.57444704285403

