101
CSD_code = GEMXUT | q = 0 | S = 0 | Stoichiometry = C43H45Cl2F6N4Rh | MND = 6
Rh       16.40686092313831    4.29994358897489   16.28692360646246
Cl       17.75665772950045    6.11970557346136   15.83299428686465
Cl       15.09995878404682    2.44856695043195   16.70552369792009
N        16.55217542801486    4.84003621074868   18.26232262425909
N        14.81550151994424    5.57077942434036   16.02844524457910
N        17.89111189859952    3.04864755772553   16.34183274141111
H        18.45530315510197    2.82958132327925   17.16365625846114
N        16.42181910142436    3.66746850438628   14.45056114615578
H        15.77412298382160    3.95562010954263   13.71628942073476
F        15.42774677343269    7.02066137336490   20.71401040461688
F        17.31349847068159    7.63896916356767   19.89027250245435
F        17.13915091072396    5.76155092216463   20.90054130440739
F        12.90660324086934    8.08291307314448   17.46968295752863
F        14.39247558781801    8.86817973505675   16.13084818150504
F        12.86464061762460    7.55998920982682   15.40246596686473
C        16.12235165648619    5.99754162200242   18.68982235207613
C        15.29568530497109    6.88109158434551   17.99514913248456
H        15.08888522065186    7.82905773684379   18.46603104093536
C        14.64499388926892    6.61948679635212   16.78902853396805
C        16.50935126346937    6.57552136900628   20.04966576520001
C        13.69516535296034    7.76007032686752   16.42882261359970
C        17.26234066545485    3.92988357568810   19.09751733979080
C        18.66836105435380    3.96852125247243   19.15496183423489
C        19.32865811557009    2.94939943564031   19.83049477388153
H        20.40751316049267    2.95636825703681   19.87159033514503
C        18.63055644751154    1.94553056521604   20.47165033519088
H        19.16221479754320    1.15939837687508   20.98704335831087
C        17.25058797852719    1.97888048320539   20.49196011892937
H        16.71424352287567    1.22734448235797   21.04786107865273
C        16.54004284624354    2.96181993003189   19.81652061118746
C        19.48083357667884    5.12189692643299   18.60395994969118
H        18.81057326059736    5.86044724845766   18.15907252481367
C        20.47474580087177    4.69227985603051   17.52035616355271
H        19.95965174389165    4.45245899455231   16.59299655721031
H        21.06639011892250    3.83431977315481   17.83457426926351
H        21.15327949993258    5.51560862326931   17.31123359638958
C        20.23563595118760    5.80346773690440   19.75178684818599
H        19.57010550131570    6.02290581749409   20.58149790051500
H        20.66695769505966    6.73798871463037   19.40148983713323
H        21.03932469328074    5.17028098530227   20.12018361604582
C        15.03370265889026    3.00756445707146   19.94365562204456
H        14.63021699938078    3.65453944166445   19.15899709465759
C        14.38364606566988    1.63065876023389   19.79449251458620
H        14.72339434416265    1.14360516714863   18.88592031395486
H        13.30444989398431    1.74879235066945   19.73293154846358
H        14.60290659950267    0.99313177082740   20.64714655392288
C        14.65384399777422    3.59614057042163   21.30713976913499
H        15.02425560708927    4.60882137465042   21.42847076624127
H        15.06735431083481    2.98794761179802   22.10870277937626
H        13.57119715505253    3.61656367102435   21.41014499618074
C        13.99587632787821    5.30537495243137   14.89352040967154
C        14.36864712614785    5.78097115920765   13.62204060177596
C        13.64745163798547    5.34411396388833   12.51748292881777
H        13.92977856089333    5.68765842510413   11.53363344210091
C        12.56192263228370    4.50262123140746   12.65806804636007
H        12.01707664121854    4.17055312266111   11.78673105486593
C        12.14727800676989    4.12778565774950   13.92041544295155
H        11.26132611591723    3.52316062788166   14.02519340676788
C        12.84348626328046    4.51720884960446   15.05662729050918
C        15.44953716445912    6.82246488630527   13.42007010421263
H        15.87551123000007    7.09840621180714   14.38706446277561
C        16.59933795485700    6.33050578784959   12.53567440823477
H        17.21348223744347    5.60481511980233   13.06374100700152
H        17.23842324915748    7.17205010510393   12.28002640121546
H        16.23408637909551    5.88639907346342   11.61154737248236
C        14.82997755410742    8.08212429185461   12.80261711967860
H        13.94574004618353    8.39249110055656   13.35150886997271
H        14.54299682711423    7.90864273416686   11.76822759023869
H        15.55200912811048    8.89454769205168   12.82760317925968
C        12.29877263087653    4.15609666038628   16.42056831668397
H        13.08525042911630    4.30128061859617   17.16715417347414
C        11.83407189078757    2.70104190439263   16.50791807106254
H        12.61617229794234    2.02890482662223   16.16963098032745
H        10.93703300004635    2.53373671259933   15.91741742428718
H        11.60391045120436    2.45984098457257   17.54282484648494
C        11.12354119917843    5.07919535002362   16.76199650912430
H        11.42373309969020    6.12143136210773   16.79527830975824
H        10.71691700750397    4.81244342456641   17.73483539879364
H        10.33664398267575    4.97877657442010   16.01767515115300
C        18.11634415755426    2.34896010536972   15.26599475751219
C        19.11115642229877    1.31507129751166   15.10785673542899
C        19.93166581923915    0.94125832555232   16.17802973737599
H        19.80837703225047    1.41215203498817   17.14237942752121
C        20.89451629242157   -0.03020843772705   16.02367571729932
H        21.52125553795659   -0.31163175303500   16.85561714732361
C        21.05111399590947   -0.64401590797754   14.78829113544299
H        21.80672373370649   -1.40340272402111   14.65543290624486
C        20.24164520524441   -0.29365774867194   13.72758643726422
H        20.39373723756137   -0.79896017419883   12.78819477561412
C        19.24974902581415    0.68406141473390   13.85063710919255
C        18.37340161548088    1.04152826215878   12.73644760512276
C        18.46918510353509    0.41600527622747   11.48971831382725
H        19.21075617513365   -0.34674532545825   11.31957277151152
C        17.62817020960290    0.74376512214317   10.44650636878105
H        17.73185190110290    0.23891476240863    9.49806249850515
C        16.64807589015501    1.71267500833855   10.61272451799752
H        15.98554602542763    1.96310324837530    9.79885385853361
C        16.52696670275221    2.34960285571995   11.82691558122368
H        15.75686278731896    3.09607605954966   11.95552248210756
C        17.37863812718062    2.03361732862835   12.89132462037671
C        17.25642605493886    2.70983919241149   14.16072038672774

