101
CSD_code = GEMYAA | q = 0 | S = 0 | Stoichiometry = C43H45Br2F6N4Rh | MND = 6
Rh        5.78988947374916    0.48832063420180    4.25378876187052
Br        6.15848315955278   -1.15789105568258    2.40181904949076
Br        5.14702429708268    2.22077293269243    5.93976813963991
F        10.60114554558069    1.34168350181777    6.35563107143243
F         9.35057356271827    3.07943889430615    6.53245932893918
F        10.22801248954730    2.56409145920875    4.64770533447079
F         6.66764190026750   -0.36591718515083    9.05671094951233
F         8.38309320565374   -1.50689518349453    8.44832701680106
F         6.42614042633044   -2.32782387651864    8.23178285953039
N         7.73815955964321    1.20012521483885    4.36310609245726
N         6.17972566517721   -0.80432643302322    5.83209570561651
N         5.24285494550407    1.65305676411465    2.79011546666338
N         3.92495800958065   -0.03509634731452    4.02920152702313
C         8.39316049439752    1.19531683121186    5.49442521149608
C         8.05140468448679    0.48263210110301    6.64500554299546
C         7.07049737732468   -0.50586399545617    6.74116694410559
C         7.12149873908429   -1.19476976826220    8.10304161598585
C         9.64086250429694    2.04396626294474    5.72874828969694
C         8.24440080742389    1.81229103906547    3.17887205619230
C         8.99401721347142    1.02752141226738    2.28411764676001
C         9.33070144801512    1.57318226050814    1.05339226742842
C         8.94886696076736    2.85374029759518    0.70607818610321
C         8.29170195159929    3.64377684243193    1.62723516305158
C         7.95207881910419    3.15774781045514    2.88420892819951
C         7.40411833112055    4.12962412461935    3.90944380885555
C         8.43654203225710    5.23884316422822    4.14979715486542
C         6.07285505317205    4.76847219839571    3.50333019888975
C         9.49887661093199   -0.35106533418472    2.65055983180512
C        10.92341882453080   -0.25302052374025    3.20900232402621
C         9.50748411806986   -1.31914373168752    1.46512843952713
C         5.32714350500589   -1.94315336587268    5.92871006952570
C         5.75006227203587   -3.15073976789672    5.34445297064245
C         4.84682767090278   -4.20232605786301    5.28076622092359
C         3.56471083032533   -4.07985072594733    5.77822895360579
C         3.19265985233662   -2.92132335937914    6.42934381847422
C         4.06519842920459   -1.84581133169421    6.54554024318579
C         3.66534955619428   -0.68471844763455    7.43332960325804
C         2.40457426041762    0.04666893998277    6.96351517175817
C         3.43854371404834   -1.20133599030205    8.86017461465355
C         7.16739912559324   -3.35557314410790    4.85546062634103
C         7.24795035492450   -4.23743587079815    3.60713881001060
C         8.01231072566366   -3.99976918885441    5.96092015797084
C         4.01792278397918    1.54465406668640    2.36382893872783
C         3.41810435050280    2.28450679793228    1.27967070792200
C         4.17138598388396    3.19756325383802    0.53386277505458
C         3.59523353616049    3.92129982953584   -0.48543327837303
C         2.24986611267608    3.73929237507224   -0.77358304046688
C         1.49857793538398    2.83229815874627   -0.05488632124176
C         2.05221714826293    2.07752257657244    0.98316431602591
C         1.26854179592450    1.09258190208585    1.72663672995654
C        -0.08273958205904    0.86325555791244    1.45246784471825
C        -0.80989011205570   -0.09128727392701    2.13340933762886
C        -0.20671303965114   -0.86531790714408    3.11483923058521
C         1.12043049504784   -0.65932413877137    3.41646951941178
C         1.86521010557234    0.31693700095649    2.74599249907226
C         3.24555953973683    0.55852201629211    3.09100202202360
H         4.47786174819288    0.04314105514898    7.47264272102205
H         8.85471284382593   -0.76983218596462    3.43008084165837
H         7.60481445589750   -2.38138423261414    4.61534593051136
H         1.58674764294067   -1.26847146924769    4.17658192643776
H         7.25035208164501    3.61294970938440    4.85858724478987
H         3.45375445960040   -0.77135559182133    4.55659143825148
H         5.22101027804631    3.33567009009304    0.74752837821016
H        -0.58819808690062    1.43611142588405    0.69294514713527
H        -0.77201499277047   -1.62082432783448    3.63782908810688
H         8.65505133445361    0.65561233483183    7.52133898768225
H         0.46071598209402    2.71510679331796   -0.31875239868862
H         8.15023013030599    5.81862067693450    5.02368274692932
H         8.05732545092313    4.66784952776585    1.37822006805847
H         2.21370491267760   -2.85573489272043    6.87994404892926
H         2.86937444815120   -4.90165090347381    5.69398607670341
H         4.18525176640191    4.62205113362594   -1.05526063736596
H        11.56947187758299    0.26466087848873    2.50334751426328
H         8.57330823627918   -1.27622442586976    0.91437323155709
H        -1.85215402197659   -0.23902855211258    1.89494159567561
H         4.26029700767670   -1.83121253857576    9.18721590695860
H         2.58712652713854    0.62541299280172    6.06181105799894
H         8.23759281805824   -4.14660129711601    3.16671425276472
H         9.42630619627024    4.82631941015988    4.32074549649796
H         7.54230734658623   -4.91763432969605    6.30724805379642
H         5.83605902348730    5.56747444335682    4.20122718499656
H         5.15148778850707   -5.13362164865261    4.83352184978862
H         1.78747987330330    4.30447401376351   -1.56842965952835
H         9.63642142717308   -2.33437945982209    1.83151168820752
H         8.99945579206440   -4.23972876666629    5.57217069014357
H         2.52208113097061   -1.78342675530268    8.92076591384221
H         9.90140048607411    0.98577544278162    0.35381610350886
H         7.08984460010285   -5.28346878073191    3.85705696330266
H         8.49272026962054    5.90848696457990    3.29492788603205
H         1.58541811384656   -0.64640357054860    6.78213457264152
H        10.33099542427363   -1.10212104764981    0.78957410043441
H         2.09323649100557    0.74644871104800    7.73483535846518
H         9.19846358655351    3.24910898484141   -0.26723522678329
H         5.25448393227249    4.05443239774783    3.54511730401819
H         6.12301625121187    5.19382764889600    2.50292606265701
H         6.51893002045987   -3.93426342426916    2.86252327264049
H         5.85620272422243    2.30286376620564    2.29628597589233
H        10.95794404664051    0.27964141606340    4.15311536551027
H         3.35801427313798   -0.35933312265156    9.54306083165016
H         8.14128844169292   -3.34277261127992    6.81409940840692
H        11.31958029979009   -1.25239209988512    3.37471818151685

