68
CSD_code = GEMZON | q = 1 | S = 0 | Stoichiometry = C32H29MnO3PS2(1+) | MND = 6
Mn        0.18249707419281   20.26699359951206    0.17552518992018
P         1.10780484954800   22.29736806052054    0.71005518625588
S         1.76727544211126   20.34819214241270   -1.73066219968813
S         2.10261788782283   19.22340897555092    1.31290426157297
C         2.83243870315228   22.49536272802526    0.07186435230539
C         3.49704306184254   20.35363894613484   -1.09664596214310
C         3.46108462885653   20.44589164089833    1.44439968343206
C         3.70859629960644   21.23085985772446    0.14561598584355
C         5.18105395092179   21.66966422941190    0.15596784909487
C        -1.00682650010968   20.27667679007626    1.51076513413420
O        -1.85374682594128   20.27261910739416    2.28455287929839
C        -1.03510226120722   21.00280595224660   -0.91139396370107
O        -1.79710475788802   21.43515155274698   -1.64378694271430
C        -0.42027101151056   18.65656991084111   -0.32996801393507
O        -0.86251514915207   17.65943780158208   -0.66556279419563
C         1.27257035754905   22.82730024821342    2.44816488903976
C         1.75498138686958   24.10634879848949    2.72245973630796
C         1.88763292086754   24.52659873862142    4.03155409698289
C         1.53834877467665   23.68140573150827    5.07487249166986
C         1.04152275958330   22.41749778976314    4.80648670500093
C         0.90268558855374   21.99323345518673    3.49631368986983
C         0.21802632412615   23.73453856371287    0.04687837753218
C         0.75842955872813   24.73784540629070   -0.74775610729127
C        -0.04313225313703   25.79087830838617   -1.15765214181830
C        -1.37242375285905   25.85181295768417   -0.77707096444773
C        -1.91302341746250   24.85554752841794    0.02243744018368
C        -1.12239332790650   23.80049763075961    0.43063011081614
C         1.73806639534435   18.78467950349350    3.00695358939483
C         2.60154411603334   19.04450988565630    4.05757969989566
C         2.24401917752789   18.64137252312360    5.33464915784076
C         1.05332833501530   17.97215412502302    5.55588845733991
C         0.20950425307813   17.69190543245193    4.49202419547973
C         0.55003343717507   18.09529928904670    3.21510658078257
C         1.70462223623851   18.77535484566096   -2.58791744748606
C         2.01874733312701   17.58119451905321   -1.95950361432273
C         1.93395857344288   16.40218011789178   -2.67857593923271
C         1.52929156301810   16.41920011656958   -4.00372858470241
C         1.20779459093230   17.61814412024140   -4.61816146658167
C         1.29717601699922   18.80523444421495   -3.91215440157643
H         3.29823184951528   23.30220183103288    0.64807816599047
H         2.76126723435814   22.81141654033350   -0.97419214177796
H         4.08348576960608   20.74577542923006   -1.92968024626574
H         3.79800788708899   19.32298323042410   -0.91168664128123
H         4.34802806312457   19.85746957596392    1.68899554606488
H         3.23455183859422   21.13078058660966    2.26399070847919
H         5.41717902637743   22.18540537089783    1.08429683909956
H         5.84152612545932   20.81022667839499    0.06325522488620
H         5.38307348727845   22.34554029569099   -0.67159444984403
H         2.00669909164040   24.77609464644889    1.91089873034242
H         2.25808762721724   25.51856309084411    4.24036095223493
H         1.64400721706923   24.01472659160558    6.09546965368793
H         0.75551977474278   21.75944390120684    5.61277484634066
H         0.50055806565928   21.00994940970566    3.28922738640388
H         1.79351982313240   24.71677688724814   -1.05525844598076
H         0.37749431051840   26.56755439383555   -1.77823661330736
H        -1.98853257900284   26.67505426631579   -1.10348382077116
H        -2.94852336171660   24.90102169579013    0.32197236156612
H        -1.53260077955762   23.01102598606165    1.05357709671868
H         3.54045008891467   19.55265648877241    3.90837239842851
H         2.91070781944856   18.85165461949179    6.15658014644142
H         0.78459790626188   17.66392226619908    6.55378621329637
H        -0.71591871625071   17.16222283637633    4.65323472736916
H        -0.10301472456772   17.88416604573920    2.37668187518496
H         2.31438678571039   17.55703542597938   -0.91941015376760
H         2.17668740268362   15.46833092002694   -2.19572078318133
H         1.46015658931322   15.49490977533717   -4.55537841712622
H         0.88828129704211   17.63388777895042   -5.64823018810876
H         1.04742874053138   19.74692806092167   -4.37649016728733

