86
CSD_code = GENCUX | q = 0 | S = 0 | Stoichiometry = C35H47N2PPd | MND = 7
Pd        2.48726611326628    3.31202852744349    4.58161882513732
P         2.69929587001172    5.28532303623044    3.51163447754171
N         3.93106977829722    1.75477210771787    2.76982994074633
N         4.82400187252379    1.03713908678855    2.21831543033132
C         2.62716412511837    1.56036818788365    2.34150745945627
C         1.68242672678408    2.33509395556300    3.03498641794634
C         0.34287016241887    2.20419775815962    2.69550766245687
C        -0.03648051000355    1.35580369893759    1.66549042502639
C         0.90939591074163    0.61344761298731    0.96662029722320
C         2.24123542811564    0.70315719553862    1.30339713163775
C         6.12453145348579    1.20853538427216    2.64868553054906
C         7.14142380831807    0.72435991574260    1.82012934648794
C         8.45971537883098    0.83267950606383    2.21364792475739
C         8.78126548863195    1.40383110165074    3.43655214494172
C         7.77614302079412    1.87309281090865    4.27017669494844
C         6.45766869189419    1.77906653185750    3.88156622746503
C         1.34482878476848    6.44452051656047    4.05976676339738
C         1.57176556066799    6.93051975894802    5.49072501729385
C         0.35557698695036    7.68324316101608    6.02653800334066
C        -0.89878014898586    6.82091731271651    5.95604747549278
C        -1.14864595678833    6.39696497118147    4.51402031794553
C         0.05365042742157    5.62428298862084    3.98407716208127
C         4.28054812163178    6.15626174825972    3.96031797165630
C         5.43030675215347    5.14871100262582    3.97145612805841
C         6.66824233461801    5.78069653151933    4.59827135768357
C         7.05673687451575    7.04317656722952    3.83168090142747
C         5.90038085370518    8.04024874060733    3.80515839228791
C         4.65742825985306    7.40904700954972    3.17695874746119
C         2.49386798464090    5.21848936667651    1.65840968024351
C         2.11686190747563    6.48647774422845    0.89399071515345
C         1.81312526892675    6.11884200040385   -0.55988633426063
C         3.00130263761290    5.42421234933065   -1.21845770253045
C         3.40469071226632    4.18411220460954   -0.42565885651883
C         3.72030692604463    4.57280390363299    1.01439044829352
C         2.16681419099737    1.62118464143659    5.91905832768434
C         3.42337705411946    2.15278466503130    6.30348857095717
C         3.18617300671341    3.41687269717322    6.86401350726341
C         1.76696595060039    3.56130517903112    7.05006926655717
C         1.14217740873385    2.46986170452396    6.47877325441103
H        -0.42191815447029    2.76221616027459    3.22490568814208
H        -1.08211995851931    1.27013201888613    1.40314994694094
H         0.59398950285598   -0.03932348731240    0.16534880352377
H         2.99937839288168    0.13099406145226    0.78976394437862
H         6.87533360237911    0.28443037253603    0.87115016988487
H         9.24535549259824    0.46540928533387    1.56918050735314
H         9.81464300523507    1.47645609093236    3.74281041397828
H         8.02806724745437    2.30827358907201    5.22722396206452
H         5.65051950729340    2.12534630453334    4.51222528011433
H         1.28798585597034    7.31037969386035    3.39095712155945
H         2.43556656461224    7.59739624089447    5.53259595712423
H         1.77429695301854    6.06091481022611    6.12442748470310
H         0.20279651820847    8.59012216288124    5.43501719424489
H         0.54435720611914    7.98777122605117    7.05846221696997
H        -1.75622563066936    7.37554575483426    6.34226694587124
H        -0.76562467483312    5.93118625876059    6.57498661191189
H        -1.31851722915352    7.28358570207256    3.89712334311730
H        -2.04260851662519    5.77281178842930    4.45440968876971
H         0.19875100442988    4.71392648446032    4.59375520717402
H        -0.12718688102604    5.31716726330085    2.95040582079078
H         4.11701054232242    6.44449623312235    5.00915003169657
H         5.66922537204309    4.82141558280377    2.95906068689716
H         5.10996557193527    4.26569638403482    4.54365686084927
H         7.49552523112877    5.06847060455127    4.58391110723722
H         6.46291353538944    6.03873769666481    5.64027636188792
H         7.32403510857263    6.77279186852612    2.80741326243017
H         7.93142240987214    7.50572700808075    4.29342890721612
H         6.18927827330032    8.92869161619327    3.23919225842461
H         5.67102599960107    8.35581235374598    4.82598855204497
H         3.83229832317269    8.12532642623164    3.18131493775052
H         4.88049525366059    7.15012536558525    2.14122926097379
H         1.66238814995359    4.50455719041437    1.55127916321376
H         2.93271681892270    7.20935886379152    0.92179380236260
H         1.23115410002659    6.95509016074567    1.32492512665824
H         1.55527537424701    7.02129689124370   -1.11875896067769
H         0.94889043550647    5.45084713051673   -0.58505360418365
H         3.84648827361064    6.11572312009006   -1.26200340733903
H         2.74446702712004    5.14776791563005   -2.24285976338507
H         4.27697507553193    3.71419367926282   -0.88396301359664
H         2.58958398288670    3.45684273226177   -0.43329891293728
H         4.01190871237390    3.69425719390948    1.59464087886897
H         4.55484210601232    5.27642495020480    1.01212745393802
H         1.99823803714576    0.60216996272714    5.58929775181406
H         4.37883853086920    1.65376313751172    6.20900760367590
H         3.92990100643637    4.04552239395320    7.33959121402251
H         1.29269100850272    4.34791366651771    7.61923326384771
H         0.08561071415628    2.24170490760724    6.49537781562178

