62
CSD_code = GENGIQ | q = 0 | S = 0 | Stoichiometry = C24H28CoN5O4 | MND = 6
Co        4.66102098321152    2.66333793605436    2.70989235555185
O         5.88180810456719    0.53778135044821    1.19054022271742
H         5.92893524613374    1.41779663623511    0.62572977752843
O         3.51953834413788    2.49767002788785    5.27616715622364
O         3.41719704726013    4.79422722278490    4.22921322564432
H         3.42128896139197    3.93592552496025    4.81691620200344
O         5.71844746302077    2.81197934116780    0.11798869581261
N         5.27533681560672    0.92465173772320    2.34151788521109
N         4.14690000416491    1.86641862381702    4.34126715134946
N         4.05606080699395    4.41039093498382    3.09347954852979
N         5.18340973118708    3.46963046513698    1.09375899394244
N         2.79566324533190    2.20248528329181    1.89661693178860
C         5.46838303976708   -1.37993768449277    3.17838950454496
H         4.58939016073785   -2.02022784001333    3.23497905568708
H         6.13078343062437   -1.64071691082499    4.00168333435547
H         5.97947940951455   -1.55364122085648    2.23526423367327
C         5.07054261655511    0.05532759806969    3.27496628350537
C         4.40839911545803    0.59354466158642    4.43219075786082
C         4.04879341715012   -0.23542906162540    5.62420100929514
H         4.94206507666122   -0.64979554957312    6.08953051544576
H         3.39509066674836   -1.05939284065742    5.34192713278891
H         3.53547498883121    0.39903601868955    6.34357735037114
C         3.88496212187722    6.71914483238348    2.26547120102706
H         3.35350252315152    6.89075692138712    3.19743551327847
H         3.25562202215872    7.00789745776572    1.42570458834672
H         4.78190508682846    7.33683649137521    2.24996010922555
C         4.26730116181401    5.28151759793843    2.16436745151016
C         4.91930136577922    4.74038024110263    1.00263306079024
C         5.24961466870526    5.56575843574349   -0.19928485979744
H         5.81302114558242    4.95132307256985   -0.89841872999550
H         5.84447011021295    6.43121061799265    0.08703273842791
H         4.34282515195587    5.91798825124144   -0.69039605684773
C         1.67491112589116    2.38795385454131    2.59075381308692
H         1.77320685987213    2.79146547439802    3.58918032921770
C         0.42162294085302    2.08077338876336    2.08963643557068
H        -0.45401628280724    2.25140437640276    2.69548157056238
C         0.31984623430040    1.55624731919629    0.81155796884846
H        -0.64190212545973    1.30432080719783    0.39045021408376
C         1.48571819704172    1.36431279909640    0.08829999850748
H         1.46329597022934    0.96022218663582   -0.91127710665290
C         2.69720781732229    1.70086751550920    0.66716981951533
H         3.61642068930331    1.56591857677614    0.11356958308994
C         6.52726906780699    3.02808930023380    3.43772041399129
H         6.61796178172335    2.46549729267990    4.36831974433474
H         7.22605861656535    2.62627699019339    2.70178560984536
C         6.78451920732148    4.45406501793104    3.66413894001877
C         6.41077611871173    5.06248534405886    4.88838761261299
H         5.97353882036012    4.44450727189676    5.65905549365902
C         6.57689153779662    6.39859873896371    5.09316179318763
H         6.27966244812578    6.85085708316088    6.02879353698279
C         7.12919778453005    7.22441550694683    4.08907580037459
C         7.54046525502837    6.62538432429383    2.86839031318025
C         7.36196484773978    5.24221890161677    2.68982107825823
H         7.68289385941159    4.79632960444581    1.75880179319569
C         7.28295034861701    8.61436965139477    4.25389963026698
H         6.96754329174016    9.06424394831945    5.18504711010328
C         7.81728440691306    9.38346093472098    3.25660434716918
H         7.92978416390050   10.44978657751861    3.38975588363517
C         8.22813766757879    8.79302886447856    2.05145048828990
H         8.65137746342345    9.41389931461551    1.27468854222061
C         8.09617312888075    7.44563707793520    1.86276491139073
H         8.41500472415810    6.98568578178573    0.93741199165720

