109
CSD_code = GENHAK | q = 0 | S = 0 | Stoichiometry = C49H52CuIN2OP2S | MND = 4
C         8.25729933502318    2.57464410302727   10.65756462425207
C         8.97774507971931    2.63633880421858   11.84623371539338
H         8.98848587986750    3.55966159079927   12.41661769474399
C         9.66833175887016    1.53567138815680   12.31170723583039
H        10.22019930769825    1.60348842031065   13.23883086855012
C         9.64900397919694    0.34048699888036   11.60240874855441
C         8.92226974445410    0.28039771865256   10.41762273365764
H         8.89658010084192   -0.64420040960835    9.85796906788999
C         8.23196522316376    1.37964646127634    9.94537010347086
H         7.66767224967359    1.31164258370604    9.02515264913110
C        10.36771373785008   -0.86767117772496   12.11746332338296
H        11.21423190354451   -0.58183265424912   12.73741032838222
H        10.72056783203518   -1.48939905342184   11.29760724367190
H         9.69062597299498   -1.46748921809097   12.72665094660184
C         6.10310626431769    3.42422710608576    9.04068230951547
C         5.95255204975791    3.81999399739298    7.71599095572076
H         6.65294530808855    4.51872400063563    7.27912439019623
C         4.91243134014949    3.31442696323141    6.96026040938898
H         4.80156317425621    3.62091584200474    5.92977564134065
C         3.99726754851410    2.41702930095078    7.50209954815214
C         4.13908585195675    2.04828804511778    8.83523055443326
H         3.43111052814626    1.36276328780759    9.27917675381070
C         5.17313314788387    2.55013493160698    9.60033509757090
H         5.27442932431229    2.25879606360529   10.63842233082861
C         2.88677382018838    1.87767126191657    6.65738388835551
H         2.25062308097977    1.20766242825886    7.23010022597183
H         3.29098722612307    1.33290772714672    5.80489411245384
H         2.28067294762570    2.69535764090692    6.26960966393656
C         8.55100768167951    4.85662094736577    8.98818040017968
C         8.38931891235314    6.21110663865424    8.71435822324113
H         7.59997372334947    6.76433893547014    9.20540460563070
C         9.22174278054446    6.84459259558156    7.81221836903106
H         9.07587184297357    7.89417637009488    7.59991937752882
C        10.24112538839309    6.14660711559217    7.17839081280571
C        10.41638366422029    4.79997921161045    7.48245266015853
H        11.21352937191612    4.24827620880898    7.00307160198613
C         9.58454587187002    4.15559088156034    8.37571804369216
H         9.73443092480051    3.10738544821891    8.59501616216620
C        11.13737938488246    6.81051706063005    6.17878534883853
H        10.89490833174496    7.86475727133136    6.07654070137839
H        11.03038802230516    6.33501526906057    5.20446695758055
H        12.17978680288493    6.71742361839732    6.47864349586331
C         9.36446160119177    5.67554497814512   14.20839536726796
C        10.69720696636334    6.01235183788358   14.42057320227818
H        11.17760907530571    6.74931262902766   13.79164395291750
C        11.40801416750524    5.40312235980102   15.43654039046810
H        12.44352599675723    5.67128755239360   15.59486858863060
C        10.81489019294138    4.45163107313389   16.25978811685815
C         9.48130270799498    4.12351407990633   16.04511007528229
H         9.00175169019523    3.38759998163698   16.67429065997910
C         8.76384864159948    4.72551219779096   15.03064239023180
H         7.72743420786113    4.45890666019908   14.87117538907309
C        11.59382060656098    3.81325121385757   17.36808934724607
H        11.17822572020509    2.84219468560056   17.62627456049163
H        11.55601095257597    4.44331307389966   18.25740068490640
H        12.63820382826401    3.69082114743825   17.08909649946677
C         7.56621538591870    7.81778973452786   13.74446116663754
C         6.37472254235267    8.30506617707658   13.21141456024426
H         5.96181929118298    7.84721088798192   12.32091478044071
C         5.72844067252386    9.36534665452925   13.81264355239547
H         4.80488033202909    9.73793307518918   13.39323848125987
C         6.24754617254181    9.95320546565455   14.96206582592367
C         7.43269440299200    9.45553729376751   15.49042937873211
H         7.84529213576192    9.90055483606272   16.38521667639771
C         8.09073870909310    8.39665834149384   14.89382642597321
H         9.00820183887948    8.01740063814341   15.32244594165914
C         5.52226546095947   11.08433348961232   15.62273833120579
H         6.14647780159165   11.56596315744621   16.37095717143215
H         4.62331539517282   10.71178606259041   16.11340002861339
H         5.21564025751552   11.82577439318694   14.88741590466824
C         9.54078547220591    7.16157137599376   11.79226827548755
C         9.47608145876927    8.49960261270546   11.42059943681076
H         8.70998949206434    9.13830687070315   11.83802642488637
C        10.39630138952561    9.01125056897457   10.52730729234499
H        10.34717201395382   10.05521794147294   10.25055513048788
C        11.39211993517740    8.20828066710023    9.98173813108762
C        11.43089453811408    6.86469505841232   10.33362043969916
H        12.18692974992113    6.21974685565700    9.90835614614123
C        10.50986480995237    6.34143653458118   11.21828135444637
H        10.54844634748347    5.29036754056499   11.47819670591978
C        12.39873467529768    8.79579350115329    9.04158265735891
H        12.96873804356695    9.57844589768818    9.54092364488612
H        11.90201279952711    9.24538323027430    8.18381271833301
H        13.09054305677726    8.03659320783438    8.68690196879053
C         3.76037897043564    5.76280719836517    9.58405632995553
C         2.13268440797392    5.04471035892008    7.89495015607659
C         1.53408769356964    4.23934002728763    8.93236494350131
H         0.66965454553039    3.65632993819611    8.66699161563038
C         2.05510619750263    4.20383645334281   10.18134083694283
C         1.49321488725479    3.40592323672615   11.30795943964313
H         2.30346468589950    2.88847861984782   11.82518746202467
H         0.79136444098696    2.66749628377737   10.92149170458733
C         0.78020813506299    4.31144767773255   12.32310366440465
H         1.46577616233739    5.08981229456255   12.65946376358208
H        -0.07320071122683    4.79184905157559   11.84001557632474
C         0.31958486465610    3.50925884996895   13.53122251315388
H        -0.20876439829958    4.15185742244793   14.23000929190216
H         1.18007542738526    3.08269125912942   14.03985836160617
H        -0.34707787085578    2.70459917668177   13.23001173666571
Cu        6.77399897997730    5.01134825180082   12.08944916617734
I         4.84150806830399    4.14286095751534   13.42956328065915
N         3.14979585710994    4.95935126860025   10.48187148366272
N         3.22907262231625    5.79279438826804    8.33671824965134
O         1.78344760167213    5.11731717008304    6.73686053781771
P         7.37974093643419    4.08683551329867   10.15172297946128
P         8.32100896561766    6.39603684331139   12.90175785680482
S         5.07376945365767    6.67742649299598    9.98172151844706
H         3.57091449467497    4.87213594431808   11.41622654150937
H         3.68814862490854    6.38166805497291    7.65099128718099

