54
CSD_code = GENJOY | q = 1 | S = 0 | Stoichiometry = C17H34IrNP(1+) | MND = 8
Ir       -1.31729166078374    3.43543059753740    3.14653583689858
P        -3.08638166879398    4.82960296895142    3.74217978124166
N        -2.48207129587233    1.57418217299979    3.43732087858235
C        -2.78318164370153    1.41952728435669    1.96885072063484
C        -2.36595574731328    2.79541385074610    1.43455764602937
C        -1.91725457014745    0.30046426918558    1.40115228695134
C        -4.25506357603061    1.08454811290597    1.75703116661808
C        -3.16082216908908    5.19741048685503    5.53518448657098
C        -4.84218637902552    4.38341512597499    3.44806924083303
C        -3.05341250178564    6.49862024603762    2.99797763100095
C         0.37536939938395    4.74683004613303    2.72213013585611
C         0.73583948913736    3.45229665802385    2.21531772275457
C         0.74582545566218    2.55701535320160    3.31161645225230
C         0.54799786477949    3.32113621999831    4.53064778935955
C         0.36680277203937    4.66031008022462    4.17898621575327
C         0.50291260953849    6.01435159790060    1.93802594105620
C         1.15209134036124    3.16710810267011    0.81083186865741
C         1.23711721885334    1.14682915132956    3.30498452347359
C         0.70931000294951    2.76757100108439    5.90777886437919
C         0.39398868742687    5.83479592540011    5.09901752191402
H        -3.34590889529880    1.60355802448982    3.97480725306657
H        -1.94771089180643    0.77667149845558    3.77675207668201
H        -1.68883561429800    2.70263807487410    0.58830913666820
H        -3.22796160945763    3.37974994896480    1.11535307316824
H        -0.86506783337607    0.51475060148888    1.56015270053150
H        -2.15989415442295   -0.65364711219317    1.86565146424808
H        -2.08875977740269    0.20722172403456    0.33274173289085
H        -4.89775137737725    1.84507157477813    2.19025693617257
H        -4.46800871908027    1.02725014366021    0.69349355466212
H        -4.49882526930653    0.12139584253416    2.20143755728002
H        -3.33417764877034    4.27651119078448    6.08774339863949
H        -2.22478139347688    5.63176894565627    5.87063184236886
H        -3.97102090163100    5.89486070835812    5.74071114034428
H        -5.02856541976466    4.25329149824868    2.38571840590299
H        -5.09719356876224    3.46744814653556    3.97558180258600
H        -5.47709333552224    5.18631199613386    3.81966488013730
H        -2.12639279201570    7.00384348865614    3.25153773795480
H        -3.11164756304921    6.40688504178931    1.91604179306776
H        -3.89385405556106    7.08945345937781    3.35853877454212
H         1.55546615972122    6.19425558740126    1.71482746392250
H        -0.03191261987191    5.95024213074851    0.99317287165380
H         0.12759254915787    6.86853241355405    2.49348932250904
H         2.21880427358442    3.37105886694664    0.70724225623042
H         0.98209955239156    2.12849347001770    0.53848828332148
H         0.62106627528777    3.80320959871766    0.10744389992170
H         2.24820192544280    1.12389547265436    3.71455560793480
H         0.62265665961442    0.49556085446266    3.92578863279428
H         1.27835283305510    0.73854992099164    2.29855082437665
H         1.76284962276852    2.78612448652626    6.19103272116387
H         0.15549214050208    3.35201144585600    6.63905555942591
H         0.37018158767719    1.73542077949024    5.96317233108676
H         1.40191157286553    6.25335988995196    5.10098217798611
H        -0.28611455299923    6.62197856468682    4.77998624822320
H         0.15326921358582    5.54771246984189    6.11968982772018

