40
CSD_code = GENLUG | q = 0 | S = 0 | Stoichiometry = C17H18N2O2Pt | MND = 6
Pt       -1.16283663388290    2.45509344803649    3.76060304250139
N         0.11591211129274    3.89255547200052    2.67498020012425
C        -0.03955501207591    5.19742343452319    2.58566183856712
C         0.25277042944635    5.92364639651758    1.43107441419643
C         0.71965420520927    5.25304121631713    0.32557542942882
C         0.90212575014886    3.86337598814797    0.39311162447652
C         1.37181494589535    3.09712799018082   -0.71193973596541
C         1.52914940801576    1.75704087539538   -0.61373574981093
C         1.23420573064394    1.06956475181296    0.59794080226924
C         1.36654307007244   -0.32120238307364    0.72781371913094
C         1.06482376500023   -0.91323666936513    1.92901479706794
C         0.60473107011254   -0.11291418331529    2.97548071171549
N         0.44284533950348    1.18808271801108    2.87371376777699
C         0.75741729115330    1.79290075250839    1.71240782217065
C         0.58245092511836    3.21571356359161    1.60757889902656
O        -1.95612626825333    2.06747508838696    1.76467969504967
C        -2.31695863847283    0.84751145358438    1.80086740470027
O        -2.09940504615426    0.01956408099027    0.92970992345788
C        -3.10886797224677    0.45088737940268    3.08609186746146
C        -2.35522460360617    0.87355379786272    4.33972909725083
C        -0.30905979026997    2.68433789684667    5.61467180680549
C        -2.64900381937460    3.77844234495892    4.25932073071807
H        -0.40503956001050    5.69965432367646    3.47178504160916
H         0.10367719783564    6.99178951492884    1.41669154718043
H         0.94605885592175    5.77547089572229   -0.59257748494926
H         1.58661305321821    3.61654773318100   -1.63440476587334
H         1.87156029185654    1.17428309515977   -1.45604776851785
H         1.69352599152659   -0.90604496808695   -0.11911640379398
H         1.15047235096591   -1.97892140188902    2.06796305663523
H         0.35882530234382   -0.55673809041453    3.93175971001323
H        -3.28785966103417   -0.62608271007752    3.06514306259008
H        -4.07048863386684    0.96684090691217    3.02098724984470
H        -1.67263778253378    0.07814150871376    4.66198510913929
H        -3.03929017650717    1.08799083244543    5.16514056593406
H         0.40650132679194    1.87357197083660    5.77305844937672
H         0.23766675584401    3.62963635686515    5.64944233268051
H        -1.02137340903217    2.67323587774676    6.43963652723824
H        -3.09589011955261    4.07575387217232    3.30711367954052
H        -3.43216224133418    3.37309312057545    4.89824641896754
H        -2.23176579971431    4.65999174820681    4.75094156426124

