48
CSD_code = GENNUK | q = 0 | S = 0 | Stoichiometry = C24H15Cl2O5PW | MND = 6
C         5.53938978699615    4.26924523190606    4.96263629703409
C         6.47556117493365    3.73384485802000    6.02426970937565
C         7.40504827444933    2.76348351802682    5.65644493153308
H         7.44984648043580    2.43638186265880    4.62422562469550
C         8.27993021025421    2.23098143145437    6.58284611275988
H         8.98492956163512    1.47231637965999    6.27813048798878
C         8.25044228542764    2.67241739890437    7.89582434068671
H         8.93040866195605    2.25653524947812    8.62374829689188
C         7.35112858279355    3.65626567221840    8.26418302184474
H         7.33099874990904    4.01835319940949    9.28131234169295
C         6.46922276853293    4.18658514918502    7.33645678009979
H         5.78088961484754    4.96033445721245    7.64083802264965
C         4.46674999301466    5.17957308296553    5.51693594093091
C         4.36974981809523    6.51201009214580    5.13402313344913
H         5.07175911759050    6.92549965223242    4.42621959205442
C         3.38103408392480    7.32618088058698    5.66018454328216
H         3.32360714213591    8.35857733655255    5.34897935190596
C         2.47395426327468    6.82514257727180    6.57598616706577
H         1.70097207572439    7.46065882869350    6.98097478602405
C         2.56977422953674    5.50245631314822    6.97408062494309
H         1.87350760455129    5.09991730573448    7.69460770591271
C         3.55808203775188    4.68912929995897    6.45263189428338
H         3.62989035601723    3.66467542259820    6.78649855364149
C         6.31404697639080    4.92665583580184    3.83877746564975
C         5.68952529427699    5.12513067380075    2.60946590694821
H         4.64984762022992    4.85131380939870    2.48890366989687
C         6.36053485706621    5.73128851114424    1.56256900624748
H         5.85874849224149    5.87456141942101    0.61723967483109
C         7.66935863887281    6.15062172196462    1.72997159135197
H         8.19955051230151    6.61451320263679    0.91227557158652
C         8.28977894168460    5.98011830802365    2.95508914491539
H         9.30509435846290    6.31762325450979    3.09902074452716
C         7.61816070001582    5.37583584793080    4.00434609918803
H         8.11393888846270    5.25803938119245    4.95624499870849
C         6.21046700266892    0.35309746210788    0.69688060391844
C         3.97429247479020    0.35793392640104    2.45630874810460
C         6.58662949123524    0.24772775037913    3.47627616242360
C         7.28460069571653    2.55317976388541    1.98063024282476
C         4.63720933068392    2.64912135941694    0.94242419363814
O         6.54262953932869   -0.29735829040631   -0.17992939753215
O         3.04233730124779   -0.28331875314457    2.59643033278126
O         7.12722050786084   -0.48270939625799    4.16487709672717
O         8.27113256794345    3.09452748662322    1.79459598806171
O         4.07948204002046    3.27674858689400    0.17186858982073
P         4.75277362033116    2.72360694544851    4.13173105059429
Cl        2.87909017518830    3.27510387060756    3.78525186210232
Cl        4.49117162495960    1.46605892761946    5.64656603280959
W         5.61870147422841    1.47171319458677    2.22624635913350

