60
CSD_code = GENPAS | q = 0 | S = 0 | Stoichiometry = C31H21O6PW | MND = 6
C         8.77790443110249    7.11510200082480   11.56570116147822
H         8.62081381685890    7.91521143727826   12.28682652303709
C         7.69580155059336    6.12748862130634   11.42278895118766
C         7.97823488774283    4.78531042906188   11.19051787071330
H         9.00706020775474    4.45768490378849   11.15692005122511
C         6.94806326169488    3.87325093654885   11.04368393009062
H         7.17626618759486    2.83222270928387   10.87071307368623
C         5.63182793734415    4.29571049933273   11.10419591602757
H         4.82875777064454    3.58590984006510   10.97609901538194
C         5.34487530206160    5.63270913746052   11.33139507362049
H         4.31840028104829    5.96420540121592   11.37989775940922
C         6.36907883178954    6.54486997076579   11.49586722620279
H         6.14817856388032    7.58739014757283   11.67754404651726
C        10.57596508203534    9.16982520390205   10.37529867745064
C         9.85885139682594    9.89358618330881    9.25218401269245
C         8.46364061223356    9.91787973457037    9.27589721850567
H         7.93672370258025    9.41689376790602   10.08031833272256
C         7.74595037030074   10.59182583801799    8.30611260356988
H         6.66717644462571   10.60970929454893    8.35178326251710
C         8.41119514931786   11.22713205373297    7.27045701933578
H         7.85484628700027   11.75214026246024    6.50925234043115
C         9.79121000616660   11.16084147235009    7.20587033270671
H        10.31695037019507   11.62699562619613    6.38604614148635
C        10.51178509317932   10.49564999708821    8.18487096082090
H        11.58764385052015   10.45307645832266    8.10989567986505
C        10.30245935787960    9.74425838763751   11.75272934322862
C         9.50375762689823   10.86160108041957   11.96857564373224
H         9.03330652710832   11.36427609589720   11.13723439637077
C         9.31672970348286   11.35690839726593   13.24812605468333
H         8.69430655316510   12.22761366454255   13.39355648393537
C         9.92423807243921   10.74890066470719   14.33205470396724
H         9.77128100368085   11.13437999058344   15.32885788291899
C        10.74374576996660    9.65211573419046   14.12479094233348
H        11.23873617074500    9.17893724866454   14.95967984836727
C        10.94099393305134    9.16190319401192   12.84752570040037
H        11.60064346986367    8.32073157221688   12.69627758276671
C        12.08275893066275    9.13423273288592   10.21922499929432
C        12.78504622246353   10.33702012910892   10.24808863031970
H        12.24337311140237   11.26521206016424   10.36401231588762
C        14.16246253850096   10.35023013536503   10.13736367175499
H        14.69173339641582   11.29147980091597   10.15349881449400
C        14.86226307381532    9.16116587438993   10.01174335535236
H        15.93806791732414    9.17145139062732    9.92237305434123
C        14.17596310643723    7.96067151766524   10.01716433287835
H        14.71316413507668    7.02724393520110    9.93998217820230
C        12.79503200890124    7.94811967821980   10.12621043813229
H        12.27817862944184    6.99430659400230   10.15702079019421
C         9.82234691055275    5.28867338516082    6.28768678995872
C        11.53490392918097    7.12890778746418    7.46616000200573
C         8.87293011855929    7.74006067748663    7.01238427515322
C         7.97518588436993    5.52384964273677    8.30579552308595
C        10.73617940351764    4.74634146098854    8.89251976566639
O        10.13128871679477    6.61720819378978   11.54736261176956
O         9.82808435303783    4.71656089064257    5.29825480438306
O        12.45532559531572    7.64534136065118    7.03039373706477
O         8.33607556545714    8.46001532338814    6.30786463460987
O         6.89440520673343    5.15847729281969    8.26090641271828
O        11.27017017850622    3.85670584074149    9.36635168320070
P         9.86053942142716    7.43583076600258   10.17168704550889
W         9.80632206268953    6.27754557250950    8.00040437061363

