71
CSD_code = GENTUO | q = 1 | S = 0 | Stoichiometry = C34H33MoOP2(1+) | MND = 8
Mo        5.13791022393818   14.19957482666124    3.91341467086626
P         7.00361416187348   15.61867151185052    3.57518108313576
P         6.81046731051309   12.54263405143393    3.82360532456118
O         4.61075603065548   14.10813918338742    2.37836700713127
C         8.52442017714350   15.15622941902458    4.52073391107838
H         9.22987690947417   14.75168753361713    3.78834445776289
H         8.96138764749731   16.06844514740212    4.93708333719246
C         8.10602700491148   12.71605032440165    5.11921491261939
H         7.81372946466699   12.06276195342738    5.94963254161289
H         9.04181461582685   12.31991137452665    4.71286012689783
C         7.20796053299647   14.57210485817198    6.61729414725588
H         7.28951994774076   13.97351897724324    7.53090469194242
H         7.37352533861423   15.61861970393915    6.89283638785405
C         8.34251688337416   14.13962912847432    5.65887432082236
C         9.64803694028522   14.11211950308969    6.46870012448013
H         9.81165509899665   15.06454928798957    6.96757965104343
H        10.50245306296223   13.91557816902630    5.82474030176088
H         9.61163296270070   13.33658483153554    7.23034085168693
C         5.82246287229652   14.42452603356010    6.06225357534705
C         4.92407043587884   15.49251075002612    5.75427807982378
H         5.12438423248608   16.54403779463198    5.91716300067313
C         3.65137845990474   14.93605826399631    5.48533243302623
H         2.72901949637725   15.49306195378530    5.35903628996683
C         3.74476112942816   13.53070620232066    5.64821635708344
H         2.90940017323265   12.84084405185176    5.65169515473209
C         5.06735450876439   13.22323232475625    6.02463727996048
H         5.39615170984177   12.25037056333094    6.37156845026678
C         6.65232430108644   17.37711750906257    3.87735961756048
C         5.46058939456820   17.79352675054078    3.28218527851330
H         4.85813134148968   17.05860457901711    2.75217081517995
C         5.05803065968957   19.11064661335276    3.37170366554876
H         4.13786307222702   19.42910472832238    2.90649939648496
C         5.84083629417850   20.02347257494885    4.06474121547640
H         5.52793343435615   21.05299777854349    4.14246108035167
C         7.02301203349992   19.61470163286176    4.65692862537926
H         7.63094488619769   20.32519994271570    5.19605775745551
C         7.43708164385626   18.29535758022080    4.56136858810748
H         8.36687157825983   18.00425077440894    5.02871272850539
C         7.62419491509356   15.76233011709706    1.87544107398188
C         6.83266723297742   15.38977419511370    0.79654418631471
H         5.85467260026023   14.95685547034452    0.97198802183552
C         7.29925062272591   15.56648210004295   -0.49459772863594
H         6.68297477490710   15.27302290108837   -1.33026478073115
C         8.54899179930228   16.12052300211938   -0.71411677750929
H         8.91241041701444   16.25401140564734   -1.72126918211228
C         9.32856308287074   16.51980098069926    0.36006943278859
H        10.29414668623406   16.97134822777369    0.19009814389266
C         8.86819812240872   16.35227879188027    1.65216961403975
H         9.47076730664356   16.69202240993511    2.48292149813380
C         6.24434555461644   10.82683053434050    3.96859816269695
C         4.90123802542784   10.57551168171570    3.70604575221526
H         4.24667128236581   11.40893623279768    3.46039458905815
C         4.41707115069368    9.28101193397705    3.75191631105214
H         3.37549347359432    9.08520145929029    3.54777206498254
C         5.27347421068467    8.23541095504984    4.05981479754182
H         4.89641314401995    7.22530702769460    4.10029418340740
C         6.61483034393859    8.48147588209092    4.30908055992051
H         7.27989944596337    7.66322988869790    4.53928931321764
C         7.10690844935706    9.77313143449328    4.25803814089074
H         8.15588601254951    9.96150821017791    4.43800253305857
C         7.64546968968788   12.48153763844681    2.21189124286702
C         6.78607519009309   12.24983269336417    1.13691535485603
H         5.72302277724819   12.14144450776032    1.32406595502071
C         7.28257050440605   12.17559384201916   -0.14922403721024
H         6.61333993575229   11.99037029615056   -0.97521307965670
C         8.64028111953727   12.34286331663767   -0.37774480925988
H         9.03005823747125   12.29276591000716   -1.38245950088310
C         9.49706666937585   12.56820880511249    0.68468072880684
H        10.55517838389912   12.69146133967147    0.50973691610245
C         9.00780728620128   12.62971764528952    1.97904798992276
H         9.70515558088557   12.78506097602005    2.78999609024446

