79
CSD_code = GENTEY | q = 0 | S = 0 | Stoichiometry = C26H42FeO8P2 | MND = 5
Fe       10.86816301695453    1.99970569522990   11.99484993144830
C         9.26872332587899    2.61370418933077   12.31829789046434
C         8.03876633819151    3.07036298758816   12.57117794671134
C         7.66056357787024    3.47265642909500   13.94156503217705
O         8.38533131139274    2.82743898621283   14.87885799402789
C         8.11175344435082    3.19101334585260   16.22087299868843
H         8.81008707401559    2.63077863957905   16.83776187658193
H         8.24966732631017    4.26535175752051   16.36286163034162
H         7.08198595865180    2.93542148659984   16.48096665656930
O         6.84399264911345    4.32060791481401   14.21377956750414
C         7.02782121477532    3.24895928699981   11.52569352250247
C         7.38188728359051    3.41647340690387   10.22962192531544
H         8.42312088816558    3.48217065004038    9.95438708452046
C         6.43709049321297    3.47792666133127    9.12808147748646
O         7.08007175263743    3.77261834881927    7.97193469022497
C         6.26048667749828    3.86474878157764    6.82062947571642
H         6.93045718334529    4.02901484411230    5.98025483667757
H         5.69045613075992    2.94282934862093    6.68383857593682
H         5.55810344267700    4.69611109739620    6.91751555633466
O         5.24097742018269    3.29596006172666    9.17686856771493
C         5.63277132170701    3.14873257254572   11.93364778436548
H         4.93381046895690    3.84694579966035   11.49760374661734
C         5.19114038428881    2.20145684063794   12.76592718895705
H         5.85299621884599    1.45381806483375   13.18548685648209
C         3.79510281123625    2.05930051671174   13.19883653950515
O         2.98114997076619    2.98644386773427   12.67709055752359
C         1.61978277804360    2.89978371612443   13.06055821774300
H         1.09767561015981    3.67530527015440   12.50595605662722
H         1.21692074916724    1.91433249996297   12.81523247549914
H         1.51590987097652    3.06159526315396   14.13612066359908
O         3.41489301057333    1.19367102888563   13.95462539037215
C        12.21995614681086    1.44457580004592   12.98565151171262
O        13.09532571848674    1.07005279789900   13.63464595394952
C        11.60347965823611    1.77587897312905   10.39762130698736
O        12.09485216758916    1.67221484469969    9.36149647093757
P        11.33628650898667    4.10646189187249   12.21263959032787
C        10.99781794043017    4.91065847161405   13.83659961228458
H         9.90874809257180    4.96307643246867   13.93275215619507
H        11.38350924422111    5.93463064083257   13.80416964551014
C        11.59309339415653    4.13696072521292   15.00310163336556
H        11.34187999283373    4.61520698976777   15.94808243044499
H        11.19596734399169    3.12282482848285   15.01042281057040
H        12.67741740478930    4.08120109389827   14.92446527878888
C        13.13466133603070    4.47569280459230   11.93847107298559
H        13.35582350699779    4.08581206803468   10.93789215848103
H        13.67840078866026    3.84129300064536   12.64769408401133
C        13.60303531814186    5.92063902006362   12.05942094446090
H        14.66722272843521    5.97313656854352   11.83515051311263
H        13.08192046864449    6.56900317513404   11.35952483034406
H        13.45701157257215    6.30353371617136   13.06642954751174
C        10.49758980562650    5.33177579798211   11.12098159792503
H        10.79588302604751    6.33721959168565   11.43589770053922
H         9.42462883512473    5.22404364017243   11.31017888518941
C        10.79764292579776    5.11190717309266    9.64408062261064
H        10.15825847262178    5.74184778687668    9.02880211321670
H        11.83479995048008    5.34689514632984    9.41344383260993
H        10.61682112556912    4.07290670450089    9.37159823589224
P         9.76867754992343    0.13026678366812   12.16597277763030
C        10.71192136475987   -1.45723679948521   11.96008968253066
H         9.98236538725519   -2.25030846378644   11.75944795063656
H        11.18380492853910   -1.66353042292915   12.92689201853652
C        11.78646460665608   -1.43023645250627   10.88297044296400
H        12.28559704628894   -2.39644025179463   10.82840051614290
H        11.36639962214922   -1.20607440725296    9.90577791429125
H        12.53254379654536   -0.67182515488608   11.11418703482989
C         8.32873898825606   -0.12376363365084   11.03917613980345
H         7.57576112799909    0.61285900598962   11.33645523217206
H         7.92335673117281   -1.12483733993632   11.22504679881316
C         8.65852407797844    0.06363260633236    9.56522922153811
H         7.74344303499881    0.09308648208375    8.97697257642853
H         9.18949774483469    1.00385097602587    9.42037635441405
H         9.27865618884008   -0.74790456288502    9.19114222826017
C         8.93220847584790   -0.25246625485964   13.76382096968332
H         8.55235291188520   -1.27920252327742   13.70735563218547
H         8.08341897671719    0.43133935068364   13.84918240236094
C         9.84503257689964   -0.07260073298478   14.96760241133510
H         9.30261665865210   -0.28437723018006   15.88686406093699
H        10.70850560741417   -0.73361615031269   14.92047126352277
H        10.19901941823738    0.95589613257331   15.00184911692618

