89
CSD_code = GENTEA | q = 0 | S = 0 | Stoichiometry = C23H58N4Si3Zr | MND = 7
Zr        2.41395792516701    2.92713253545300   19.37088590363980
Si        1.61358087377533    0.34513484631932   21.83630324105216
Si        3.53211003179482   -0.27092397951954   17.50664102404927
Si       -0.91024959962992    2.98846658003845   17.61446805543899
N         3.85283151539306    3.30738029665057   20.84951785292669
N         1.56250709417773    4.89772598064830   21.00971436534162
N         3.25839565601358    5.65163006532682   18.69018667414981
N         5.25111637497200    3.53707699326504   18.28551226077386
C         3.50110154317347    3.81495643554866   22.14424312697732
H         4.13794662004630    4.69519166430294   22.41704513298873
H         3.69701154345769    3.07421392925897   22.95272752721586
C         2.02096497530077    4.20862884336843   22.22072271551066
H         1.42820679422328    3.29790921033072   22.31582363041466
H         1.85462700672644    4.83437324700534   23.11662615991522
C         2.18402341023050    6.21776949483403   20.87861292737032
H         3.13869976307360    6.22259137413109   21.40316382574891
H         1.55829913223151    6.99558837436644   21.34583770372168
C         2.40643329902848    6.59962698400000   19.41350372508514
H         1.43699057047535    6.63797683490014   18.91128315849673
H         2.83776292407197    7.61796552860926   19.38042946346052
C         4.63556955172779    5.80462261186065   19.16303552026418
H         4.65267745222060    5.54891208920568   20.21753554066727
H         4.96358348728198    6.85776797260181   19.05343669603742
C         5.65655843530088    4.93603040526488   18.42497777215037
H         5.81085317539155    5.35359731842778   17.42645027620616
H         6.61993908122703    5.01966119102886   18.95509156848828
C         5.73859458420770    2.69292439408454   19.38315573580411
H         6.84525653782815    2.67165710872798   19.38424503095804
H         5.36747340712267    1.68493275784335   19.18419336473691
C         5.27264930456625    3.10864351475176   20.77798573434683
H         5.61848858880461    2.31630789102351   21.48232353415150
H         5.82903889366832    4.02413967259583   21.09539244867404
C         0.11107391253004    5.04979636052204   21.07734001320330
H        -0.19453321768513    5.55764281822331   22.00618584619870
H        -0.36497641329862    4.07228606594711   21.03338079153676
H        -0.24604534433819    5.63773647794335   20.23434110972969
C         3.19018192872500    5.94773722802984   17.26026289674919
H         2.15169370957045    6.00919434478038   16.94112750346308
H         3.66957959024371    5.14919057363105   16.69819744162496
H         3.67931739032918    6.90562226053728   17.02033918810173
C         5.82320302381238    3.01191658577341   17.04707281434607
H         6.91827160529747    3.12897199578456   17.02392332027636
H         5.40417839339722    3.53563322870045   16.18756813412980
H         5.59233822669994    1.95459022663141   16.95184769156118
C         1.01915851804339    1.46634304830965   20.46027060265453
H         0.10787781891168    1.99522009698827   20.76649548411881
H         0.72405812245363    0.82752490981365   19.61740375015773
C         1.37612486826227    1.03626576767595   23.62310061743810
H         2.14270199727342    1.75431829754450   23.89440488603968
H         1.42012480587049    0.23074926510279   24.34999705003109
H         0.41075282464974    1.51961905787800   23.74310820712339
C         3.48452880745571    0.01520228946149   21.56499535912328
H         3.67970803697773   -1.01212434735814   21.27383895355795
H         4.06832146747848    0.21278419470042   22.45937217642572
H         3.83705020787142    0.67423508749501   20.76904677064986
C         0.73038890851097   -1.36461218461762   21.95885475593017
H        -0.29661601216921   -1.24719084232891   22.29193851023728
H         1.22583960248977   -2.03062670225112   22.65955822749993
H         0.69986443405579   -1.86869004443064   20.99848870935838
C         2.87509839636434    1.47710569780957   17.65532697243766
H         1.84045606875893    1.39403915171664   17.29217001506446
H         3.37969980765261    2.12577754852393   16.92342316570132
C         5.24584968835733   -0.71665982228424   18.27107146793695
H         6.06440508539167   -0.16805518741023   17.81304780904153
H         5.44880236068769   -1.77202799496498   18.10987171941186
H         5.28530553175321   -0.54680990826738   19.34157001442470
C         3.76544225111913   -0.80891132656141   15.66402827323844
H         2.84058627365649   -0.69396491277652   15.10663422828784
H         4.07251410299403   -1.84653667138624   15.57228804233877
H         4.51861724060279   -0.20391917817030   15.16522806635719
C         2.28664399842904   -1.51664649757579   18.25229180391691
H         2.11149003137683   -1.30628667369700   19.30091106295173
H         2.64282527585412   -2.53940889376517   18.17136065308825
H         1.33139126157889   -1.46444711537475   17.73923808609562
C         0.73928777442555    3.78441217655619   18.00892194868305
H         0.52084644063398    4.82257954518271   18.29087057798395
H         1.28574435877948    3.84308133540322   17.05124183741396
C        -1.85590316004585    3.89580976775001   16.19183254643352
H        -2.06065944947011    4.93101005055934   16.45141081560297
H        -2.80811048142270    3.42602508625547   15.96481584152172
H        -1.27226796546217    3.90265983778797   15.27558205278103
C        -0.82274571118144    1.17067837572760   17.00627539995277
H        -0.21541418779815    1.08073973132115   16.11047445177633
H        -1.81395097400606    0.79994060242606   16.76062953191719
H        -0.40404570878279    0.50800373668235   17.75700337336979
C        -2.17879377879932    3.01835250781076   19.06067711287725
H        -1.87137036890395    2.39172958163851   19.89101510437762
H        -3.14178327540609    2.64902792283633   18.72116044771997
H        -2.33712805367602    4.02385329951590   19.43849506927491

