91
CSD_code = GENXON | q = 0 | S = 0 | Stoichiometry = C44H32N6O6S2Zn | MND = 6
Zn       -0.35583569562767   12.10726580776594    0.00000108973365
S         0.06096265320942    9.04465832548399    0.39267238384689
O        -0.55188284599076    8.09004394056932    1.27875789909619
O        -0.21484752406571   10.44430089540415    0.81353299515511
O        -0.21651193079894    8.84204312392959   -1.02348221342177
N         1.79567646299748   12.29950408644811    0.48579766491970
N         2.11479561118309    7.76830142604576   -1.52678293390752
H         1.10942061949301    7.90992468470288   -1.62035744733449
H         2.51993553569747    6.95526947549071   -1.96011341749576
C         1.85593761954282   11.19777602090739   -1.61980032099539
C         2.51847155829441   11.63920405947285   -0.42823923590690
C         2.37569501635412   12.66545599979038    1.60384480522662
H         1.75042476359112   13.18724743832365    2.31406897373258
C         3.72280038906852   12.42071229939988    1.88502195145492
H         4.14425464299564   12.74103154261201    2.82421158321721
C         4.48573114278897   11.76012205862235    0.95252167284082
H         5.53035350649267   11.55062251287435    1.13015547227985
C         3.89056505465764   11.35023511104219   -0.25034373402906
C         4.59811063050364   10.65344554661461   -1.27081656790058
H         5.64849133296537   10.45613692014908   -1.11611406631551
C         3.96930284422672   10.23699348486911   -2.39572039682377
H         4.50563988994208    9.69540611887697   -3.16074677206978
C         2.57919127415501   10.47459566033759   -2.59114273299116
C         1.86688619828002   10.00365331656285   -3.70734606504082
H         2.38429141811883    9.43624399396587   -4.46761157281526
C         0.52068578244901   10.25317100184401   -3.79315018469400
H        -0.06597790448734    9.87924442103069   -4.61704498569988
C         1.84436086095243    8.81210526833922    0.63220298697540
C         2.60104217530965    8.12055201917901   -0.29926605300730
C         3.96385152780057    7.83883916599072   -0.01094666717921
H         4.53357134317331    7.28570518977622   -0.74467020987881
C         4.54024528445640    8.25206015804582    1.14857674517218
H         5.58110864283255    8.03909542029436    1.34990623296148
C         3.78636279134696    8.94322943262223    2.12107224024546
C         4.35620543768670    9.36163995348655    3.33867451658975
H         5.40787192207928    9.17429156318869    3.50816796676428
C         3.59601443702105    9.97782070414926    4.29317249933997
H         4.03870561003904   10.29497727989655    5.22654453374285
C         2.22441235791193   10.17106991078259    4.07123522681837
H         1.62357105261270   10.62334255612334    4.84734952158818
C         1.64305499497350    9.78232094093412    2.89597514557658
H         0.58862866007280    9.90378775360020    2.72927754767353
C         2.40579782571712    9.18547390031050    1.86946949004159
N         0.55176995332907   11.47440148753230   -1.75046297291222
C        -0.10101842497388   10.99604974784904   -2.78293511145428
H        -1.15869926793191   11.20882778632226   -2.80893608313742
S        -3.41844538259170   12.52406366312249   -0.39267117310493
O        -4.37305846540631   11.91121854754225   -1.27875848292835
O        -2.01880249719683   12.24824841505317   -0.81352713438696
O        -3.62106634656990   12.24659262621249    1.02348337268395
N        -0.16360334478958   14.25877733123008   -0.48579503322233
N        -4.69479444051586   14.57790601043833    1.52677935637116
H        -4.55317570681419   13.57253069767419    1.62035712800728
H        -5.50781865603105   14.98305501426674    1.96011555040046
C        -1.26532897667115   14.31903592259215    1.61980468541525
C        -0.82390248807200   14.98157114828287    0.42824367296908
C         0.20234730257149   14.83879736417034   -1.60384190295814
H         0.72413843915718   14.21352814881957   -2.31406714134134
C        -0.04239718294241   16.18590282226877   -1.88501734405210
H         0.27792005647689   16.60735786213435   -2.82420726721007
C        -0.70298772064439   16.94883195201001   -0.95251588349761
H        -0.91248881128163   17.99345414118287   -1.13014872780798
C        -1.11287259240435   16.35366456749767    0.25034961862753
C        -1.80966100908555   17.06120892583121    1.27082407380878
H        -2.00697089094571   18.11158956605144    1.11612240828686
C        -2.22611073110521   16.43240015909669    2.39572824824961
H        -2.76769800939018   16.96873607108047    3.16075551788846
C        -1.98850831369733   15.04228835318654    2.59114874197703
C        -2.45944921347132   14.32998196730279    3.70735188400821
H        -3.02685705978271   14.84738650375277    4.46761897150073
C        -2.20993299241942   12.98378126862615    3.79315340020239
H        -2.58385858127684   12.39711662083062    4.61704795891962
C        -3.65099306674734   14.30746210764011   -0.63220574963165
C        -4.34254350234637   15.06414832278223    0.29926158254979
C        -4.62425248725624   16.42695771016928    0.01093830729363
H        -5.17738404023231   16.99668130718961    0.74466079499804
C        -4.21103138265677   17.00334652301851   -1.14858753613152
H        -4.42399364843883   18.04420976962368   -1.34992032704651
C        -3.51986466261108   16.24945912572169   -2.12108104119279
C        -3.10145367899730   16.81929670284885   -3.33868551529854
H        -3.28880045526556   17.87096287511925   -3.50818275454552
C        -2.48527454317769   16.05910123558072   -4.29318098686828
H        -2.16811804705643   16.50178860340383   -5.22655488563110
C        -2.29202683693946   14.68749976894248   -4.07123863560478
H        -1.83975440135767   14.08665526461332   -4.84735059392676
C        -2.68077689662989   14.10614710232234   -2.89597658263910
H        -2.55931173049628   13.05172121551909   -2.72927490758559
C        -3.27762321340152   14.86889440538631   -1.86947385850160
N        -0.98870426088172   13.01486784534198    1.75046522017405
C        -1.46705642221630   12.36207792583419    2.78293618976557
H        -1.25427833883995   11.30439700714376    2.80893538103720

