201
CSD_code = GEPCUC | q = 0 | S = 0 | Stoichiometry = C96H98FeN6 | MND = 4
Fe       12.32051019484274   10.54710763081111    6.34128139539477
N        13.17116554953983    8.67528983210971    5.56270954832392
N        12.84927783054016    9.11867488607580    7.69075150362103
N        14.74486589296173    7.87030791767765    7.23045357925958
N        10.06918417651787    9.97528661464538    6.16130946604683
N        12.00646166869417   12.26975696042374    6.21941970774460
N        11.85941721577957   14.59515082554248    6.83186228039472
C        13.64672331107864    8.53883011414126    6.79475769988779
C        15.98425803246602    8.04503407925127    7.39523369246161
C        16.63509095391863    7.00942187774155    8.31960702943823
C        17.94488479274407    6.39869842653514    7.81307700991024
H        18.29501287311608    5.67323159920068    8.54525601874807
H        18.73706616764812    7.12517046439935    7.67066090800723
H        17.77917789628191    5.87200638134564    6.87793473497471
C        15.66018220271388    5.84713433074177    8.54647174532002
H        15.42289847866441    5.35883789831571    7.60633445504786
H        14.74458749131181    6.20423205481725    9.00669677178280
H        16.11121888614577    5.11116724579632    9.20805991704805
C        16.84379091918797    7.67553287182168    9.69122863803455
H        15.91681499908550    8.14025984105833   10.02139900879260
H        17.63100755978519    8.42039984683193    9.67908347192190
H        17.11417902475508    6.91030650240633   10.41618155125063
C        16.77018532814245    9.17775193406368    6.72011680370406
C        17.94330854912164    9.75513738149960    7.51990846869838
H        17.58120711645601   10.27068002873145    8.40518409399285
H        18.45510225378990   10.48901973255579    6.89841946600322
H        18.67794194878206    9.01378322613191    7.80963271553244
C        17.29092783244315    8.60912024161369    5.38649980048781
H        18.04863951210816    7.84796923482654    5.54562720620758
H        17.73295246045642    9.41275012702156    4.80031754996454
H        16.47773457776401    8.17896132692711    4.80546463914091
C        15.86102489664434   10.37390766346624    6.40323919196208
H        15.14651516924087   10.13529507320680    5.62207516124782
H        16.47027234062102   11.20403675659387    6.05006211567446
H        15.33506117048821   10.70460397268398    7.29597885733020
C        13.80065511285190    8.24584458280329    4.40571259040631
C        14.16069796027936    6.90297761841465    4.18414456093836
C        14.87532435693606    6.56371873418775    3.04654167635194
H        15.14654530150309    5.52705579099347    2.91166154502937
C        15.23969010101926    7.49736506586267    2.08474354486005
C        14.72806491445826    8.77835376737365    2.23060003855838
H        14.88213883808071    9.51319240715922    1.45913908335573
C        13.99957385122203    9.15442277872727    3.34653239576593
C        13.57275192728629    5.81109461829439    5.04985895022287
H        13.45936688752009    6.19260135822218    6.07148469159446
C        14.42807979736919    4.56597930435364    5.14484376717907
C        13.85934382685865    3.30098650826860    5.22036551727922
H        12.78609901482021    3.18957556848238    5.17094715402006
C        14.65480846052603    2.17605380269998    5.35680993312958
H        14.19360972195070    1.20057140187277    5.41164159423064
C        16.03152897874726    2.29596007342686    5.42007879551727
H        16.65170144539060    1.41765183745934    5.52108947519126
C        16.60869131791148    3.55273015996819    5.35330961411589
H        17.68350990826076    3.65670706163490    5.40275187002534
C        15.81309623610975    4.67615390798854    5.22318140028490
H        16.26568732438914    5.65579980410168    5.16942427402607
C        12.18616359196002    5.50477452018161    4.51012839230787
C        11.12147780648203    5.31999680661403    5.38183045317432
H        11.28402075822878    5.38963939907931    6.44573503275905
C         9.85471417618752    5.02684767293282    4.90829444979853
H         9.04622944250976    4.87319253823773    5.60874710512436
C         9.62859516625158    4.92422032417880    3.54738825876262
H         8.64023427693031    4.69914547456267    3.17308443077473
C        10.68288658182585    5.10424739804154    2.66848232014944
H        10.51973059365189    5.01966192845333    1.60361076974389
C        11.95006719441268    5.38613711070039    3.14534751013530
H        12.76139811305834    5.51742436530605    2.44536956251408
C        13.29937522486934   10.49574499613489    3.38506109387189
H        13.39923259869690   10.92101363328350    4.40303626739585
C        11.80987087151156   10.33127040751757    3.13024947970122
C        11.24626304966214    9.13966345550691    2.69439762826870
H        11.86533382670723    8.26984085031858    2.53574826071009
C         9.88490567407202    9.04946539085791    2.45893047936600
H         9.46483718916881    8.11046454458575    2.12814217916731
C         9.06880756253290   10.15059726854479    2.64230591856658
H         8.00724220869966   10.07935943595779    2.45469251523055
C         9.62316647598718   11.34697662062196    3.06587897346338
H         8.99506611471706   12.21440471141925    3.20738174184202
C        10.98102836407628   11.43585959222999    3.30758743446038
H        11.40815274981795   12.37582235780512    3.62592874718069
C        13.90279635092569   11.49602839173939    2.42940519748114
C        13.44076753926769   11.61962828150383    1.12388963429561
H        12.62201988920696   10.99924399490829    0.78873102302320
C        14.02063004002867   12.52762422097932    0.25610346280658
H        13.65176048614288   12.61284239627871   -0.75578437489295
C        15.07001971401464   13.32536553947396    0.67977975880877
H        15.52008037082224   14.03585026611687    0.00225978032011
C        15.53718093173542   13.20804963371786    1.97744180831367
H        16.35412314082832   13.82889704667354    2.31596027209752
C        14.95773793757671   12.29893333838176    2.84413654724159
H        15.32496251138815   12.21299469598728    3.85675596774421
C        16.10015711406649    7.07037051345764    0.90805954357444
C        15.35724726668217    5.99997072027211    0.09626834498957
H        15.16951010315408    5.11083771211411    0.69297689654020
H        15.94705070031098    5.70816379001269   -0.77029259550524
H        14.40198155651301    6.38861295852293   -0.25175081621059
C        16.43383907320286    8.23768314411753   -0.02461037259433
H        15.53532115636412    8.64096331016630   -0.48589032353281
H        17.09274036074193    7.89210485551283   -0.81884217409320
H        16.94129892709883    9.03472676810540    0.51427608838306
C        17.41765536134909    6.49225920234983    1.44457714188493
H        17.94526211848913    7.24363828135739    2.02908199266633
H        18.05719205302675    6.18398382132852    0.62003463845589
H        17.24082648170417    5.62794788078467    2.07955626562067
C        13.03033940736964    8.97681695289262    9.06641476429406
C        13.46930290175019   10.04007758388722    9.86702332323539
C        13.69092380623217    9.84466026016636   11.22473985918636
H        14.00007013425804   10.69711085510182   11.80659571238832
C        13.51921830545942    8.60728051175516   11.82103890296413
C        12.96615613712492    7.59573007769341   11.03952546179325
H        12.73657509224910    6.64570815059268   11.49455373998487
C        12.67099151838811    7.76939858566820    9.70190674461330
C        13.54423309926569   11.44365988567935    9.30855406081927
H        13.36687164918960   11.38239488577552    8.21665447624096
C        14.84286379233591   12.18467966782510    9.50786608356131
C        15.98493860521790   11.60171150519013   10.03851863938296
H        15.96537311252994   10.56879900120445   10.35381754222858
C        17.15284291298083   12.33653738953859   10.17116254216378
H        18.03161284083786   11.87094433604522   10.59556898621488
C        17.19909968017998   13.65787034297849    9.76499373993073
H        18.11124042225185   14.22644440692602    9.87031406933475
C        16.06729551844581   14.24578463570129    9.22260917090586
H        16.08659726498351   15.27521134374983    8.89629573574007
C        14.90268120531871   13.51430815958620    9.09686238333094
H        14.02026269741932   13.97923402166269    8.68307920918480
C        12.35663130432251   12.18713158613015    9.88879102477442
C        11.09973066032629   11.97105007491758    9.33666005521174
H        11.00345203779822   11.30364323759161    8.48663990463217
C         9.98735825521035   12.60772481093279    9.85335202397686
H         9.01778718523016   12.44252048521239    9.40609944341251
C        10.11469727015841   13.46154845983303   10.93685102891311
H         9.24744901156857   13.96557671856648   11.33799734242663
C        11.36115972100705   13.66759515115656   11.50202398893177
H        11.46858964646340   14.33075910433402   12.34828426208863
C        12.47635646263153   13.03166815145813   10.98409154276110
H        13.44528138282997   13.20920017363517   11.42842849501148
C        11.83177407708481    6.76360675173839    8.93676065850310
H        12.19821954281529    6.75252243415342    7.90374854636972
C        11.90577176819636    5.35952743418787    9.48739417243001
C        11.20444214154945    5.01811526584823   10.64135745131479
H        10.58850192062607    5.76168492487428   11.12774924596683
C        11.27058990984580    3.73601047591760   11.15442126745653
H        10.72389965540436    3.48920656289930   12.05329440015144
C        12.02844739781638    2.76757668745163   10.51619270168330
H        12.07829973593239    1.76597827455407   10.91735423477995
C        12.70793824284174    3.08930671804323    9.35521827710884
H        13.28855048632480    2.34000243143329    8.83695361143669
C        12.64402196677335    4.37468507901017    8.84512400330179
H        13.17271309801017    4.60115489094573    7.93175027131702
C        10.37485919870491    7.21028839812798    8.88126758812633
C         9.94938731905113    8.46690965136405    9.28657549706134
H        10.65238872230549    9.17833004691641    9.68831406939481
C         8.61489074917919    8.82503715976675    9.19711834915001
H         8.30907049843342    9.80874860167415    9.52182050585645
C         7.67979831582509    7.93286931614517    8.70766657852905
H         6.63843922270882    8.21249431305227    8.64217792727059
C         8.09077721390024    6.67146415933115    8.31207336537475
H         7.36803114412148    5.95895096468907    7.94052571328710
C         9.42290836912540    6.31602385088468    8.39921445986534
H         9.72324991674052    5.31976008204263    8.10779324549397
C        13.84200941444034    8.33272715556851   13.28010090737603
C        14.86671973005508    7.19172809118386   13.35372812153070
H        14.48961921761033    6.29092352781926   12.87685441287356
H        15.09636546222447    6.95943023043257   14.39160325672884
H        15.78825394264338    7.48249744099958   12.85337316308475
C        12.55759509019794    7.92487049399868   14.01485747113186
H        11.80619508443761    8.70593469110902   13.91796455427605
H        12.76281312568608    7.77079077398524   15.07229015736962
H        12.14690995472640    7.00370449651648   13.61078766046869
C        14.43300560991990    9.55458443100138   13.98856282675069
H        15.34367450352652    9.88995774611677   13.49713883709093
H        14.68073923524570    9.29454916244307   15.01583865821345
H        13.71937365701076   10.37488087434463   14.01247178192047
C         9.80682148164286    8.74170656355531    5.74597273545039
H        10.66119187542438    8.08965983253541    5.63811175193786
C         8.52958987277453    8.29724280408081    5.45223973108981
H         8.37817452267465    7.28721792905845    5.10783744003392
C         7.46834531336143    9.17325818229794    5.60390524162194
H         6.45713104525470    8.86206186304141    5.38546454060988
C         7.73524587812285   10.46052754989028    6.04128311543164
H         6.94123274137760   11.17911114308053    6.17387526696864
C         9.04752072746783   10.81312397830969    6.30285826550596
H         9.30272716786489   11.81005299161744    6.63443884492194
C        12.05281955431080   13.43233126688538    6.48308249236036
C        12.70726729701451   15.64691232251342    7.06399763562175
C        12.23735846402549   16.64800318611062    7.92951978218648
C        13.03612662399794   17.74781301069818    8.18395239418292
H        12.68011469589230   18.51727399506504    8.85442303319152
C        14.28112849282414   17.87283663622130    7.59069171422009
H        14.89468211716681   18.73818401893026    7.79420644492899
C        14.73764328305137   16.88487315837543    6.73632800424176
H        15.71051387681944   16.98311347904248    6.27400537702058
C        13.97171715915211   15.76371744915495    6.46102160905151
C        10.89788838755266   16.47975437330544    8.57770618421709
H        10.61110858582804   17.38017354637696    9.11521533090828
H        10.92184170474572   15.64255377442820    9.27640389380554
H        10.14434494159683   16.25217779602541    7.82565930439798
C        14.48349741388181   14.69328026498449    5.54427544397754
H        14.68439968341291   13.77653802461283    6.10239982971751
H        15.40454916651659   15.01347036015049    5.06255172426606
H        13.75031488985121   14.45847377543635    4.77177927110958

