51
CSD_code = GEPDAH | q = 0 | S = 0 | Stoichiometry = C26H18N4O2Zn | MND = 4
Zn       -0.00000098831614    8.69153019184402    5.51384991360806
O        -1.35925525118252    9.57654461665234    6.34888986817600
N         0.55376596836634    7.68177407786481    7.07407750245315
N         0.63933107852509    7.08760651764638    9.20161502444891
H         0.41375138353912    7.04402054227988   10.17997894615916
C        -1.79348514578763    9.43889077193069    7.55344057432725
C        -3.47701390793899   10.09797194531638    9.19387104756420
H        -4.34970419705793   10.68172850127938    9.44905021205551
C        -2.90892408992348    9.25051740579204   10.14704162621489
H        -3.33952895135697    9.17321382301638   11.13358364003969
C        -1.79887622907090    8.51729308646605    9.81712320632371
H        -1.37915187756328    7.85821190202964   10.56472616649909
C        -1.21043560803733    8.58436027614529    8.54046379262863
C        -2.93499303707922   10.18617711579431    7.94137657951332
H        -3.36415245826113   10.83310631839560    7.19160893660406
C         2.70739772822529    5.64120055384548    9.06765399954492
H         2.75677021880182    5.34770237587634   10.10507149870264
C         3.64082095598360    5.20392996268914    8.14621957076538
H         4.43769946337767    4.55249529681764    8.47168297097740
C         3.58065216987986    5.58577324195742    6.80543554385721
H         4.33530976899628    5.22071856662729    6.12532457280551
C         2.58519385864547    6.41719125319208    6.33142300278071
H         2.53573460535249    6.72464218300073    5.29856709737057
C         1.64026748173488    6.86301913856104    7.24491954717578
C         1.70768426460083    6.47566006469290    8.59745945809483
C        -0.03601718572742    7.81153540297693    8.25810162120867
O         1.35924952489458    9.57654810445524    4.67880975968157
N        -0.55376346016127    7.68177049764368    3.95362352535437
N        -0.63933272378144    7.08760765669942    1.82608488191612
H        -0.41375509770798    7.04402413431766    0.84772033680362
C         1.79348215838737    9.43889252934625    3.47426022679391
C         3.47701436605459   10.09797256579802    1.83383299756264
H         4.34970475379615   10.68172953616273    1.57865510088919
C         2.90892747552150    9.25051611893734    0.88066236307669
H         3.33953505017267    9.17321130157079   -0.10587835760049
C         1.79887947079538    8.51729115966815    1.21057914352619
H         1.37915773365680    7.85820784085858    0.46297656084854
C         1.21043575019275    8.58435978158064    2.48723707209836
C         2.93499036712846   10.18617916471094    3.08632599180303
H         3.36414752186447   10.83310956692854    3.83609385509084
C        -2.70740094373627    5.64120323788971    1.96004695729637
H        -2.75677631237175    5.34770733912011    0.92262899804378
C        -3.64082304974151    5.20393216472212    2.88148237548417
H        -4.43770362109406    4.55250000508139    2.55601899649743
C        -3.58065071281328    5.58577189010671    4.22226726882696
H        -4.33530733626135    5.22071671673093    4.90237898815070
C        -2.58518996129162    6.41718704832191    4.69627951717879
H        -2.53572781190908    6.72463551472369    5.72913600782569
C        -1.64026539315549    6.86301618848946    3.78278179303870
C        -1.70768523636417    6.47566042808123    2.43024108317843
C         0.03601746919817    7.81153437536427    2.76959863673581

