41
CSD_code = GEPGEP | q = 0 | S = 0 | Stoichiometry = C16H20Cl2PdS2 | MND = 4
Pd        3.91780532258751    7.78309809553910    3.25954391750422
Cl        4.10949669585318    8.31637350074417    5.47943860766573
S         1.82885613446399    6.81864339548546    3.50817754182604
C         0.16590953514539    6.07825989913884    6.70593667510835
H         1.06698419079890    6.29985562250012    7.25915267606856
C        -0.05559568926742    6.69491483220973    5.48042844614759
C        -1.21773872845893    6.40429493499697    4.77403951784412
H        -1.38684760226745    6.87340815778945    3.81549823865922
C        -2.14714691511441    5.52032586070112    5.28992241977257
H        -3.04784103583827    5.30310933516334    4.73536491647311
C        -1.92310129428887    4.91405042163993    6.51538154517947
H        -2.64942610327885    4.22407830052572    6.91806336598358
C        -0.76624781523380    5.19492732208908    7.22202534415064
H        -0.58741976197662    4.72400890519314    8.17718603649174
C         0.95978210477355    7.62763567388931    4.91029526087612
H         1.71637944533021    7.92449635946569    5.63879264551828
H         0.49681379328619    8.51155389998463    4.46950618091287
C         2.55722511007693    5.39201562525140    4.37206457168533
H         1.76309083469133    4.70563640925159    4.65594167092938
H         3.10025948943383    5.74682770084114    5.24974993982960
H         3.23846859043059    4.90886827987035    3.66711597610865
Cl        3.72925636535699    7.25011462564059    1.03712846020499
S         6.00569865066348    8.74744748228338    3.00550979941530
C         7.66946105677813    9.48829980152973   -0.19153797546678
H         6.76827115407695    9.26651771755038   -0.74449693873689
C         7.89136533876294    8.87177586077177    1.03393914287520
C         9.05357387255686    9.16265478020247    1.74009842840164
H         9.22298309506447    8.69359338812619    2.69861754766368
C         9.98275590852556   10.04667486041438    1.22391454298422
H        10.88361540518727   10.26395351083558    1.77817590289747
C         9.75832714381257   10.65282049608299   -0.00153902562478
H        10.48445871461910   11.34284781625958   -0.40446006336128
C         8.60134777386184   10.37173498576843   -0.70789454129208
H         8.42224165656170   10.84249655510787   -1.66307768105619
C         6.87620747743718    7.93892518743465    1.60418418869172
H         6.11947146611758    7.64192437661517    0.87591279822100
H         7.33913631981261    7.05519916961475    2.04540299334601
C         5.27810034510622   10.17489821343696    2.14225688298915
H         6.07258106670827   10.86093982913809    1.85803375082892
H         4.73441349323258    9.81993205916287    1.26487677532285
H         4.59742739460358   10.65826675175163    2.84772951695030

