49
CSD_code = GEPHOZ | q = 0 | S = 0 | Stoichiometry = C14H14N4NiO16 | MND = 6
Ni        0.40434867628753    1.22376513220122    7.14059513058074
O        -0.24433231691382    0.43711154247866    8.67167537884654
O        -1.07534637795203    2.29100290818801    9.57733458083371
O        -3.38367263543751    1.89790907759459   13.84971245380460
O        -3.50240301606563    0.01239578027089   14.87306454051203
O        -1.49081266394148   -3.89079519095290   12.92803923540127
O        -0.49363569199918   -3.73153998611042   11.03109080892823
O         1.05973425383339    2.01122441955292    5.61240529568535
O         1.85644940975837    0.14959018995860    4.69216710548824
O         3.95144090768485    0.49324290976879    0.30797591734282
O         4.21795845752954    2.40144726882417   -0.64322478412481
O         2.61991162198437    6.38614815437424    1.50886932471866
O         1.64839289762634    6.23792993040304    3.41993322796491
O         1.24514708735725    2.94997338571514    8.31266146468080
O        -1.47457900979917    2.43962846562877    6.88883217236290
O        -0.45810519457619   -0.49262718367253    5.96898942542243
O         2.27493575986948   -0.00607110385616    7.38014487627045
N        -3.16032561385443    0.71552443163177   13.95266826161684
N        -1.11218150043264   -3.27152657002829   11.96382643853635
N         3.83820603319128    1.69477890895392    0.25961300408031
N         2.20803125006039    5.76397010886788    2.45747558729308
C        -0.84167806491413    1.07455012366987    9.58165865198187
C        -1.29263187585863    0.24688345849902   10.76132840694529
C        -2.00166776641731    0.84901306960672   11.79314517991459
C        -2.41492317134380    0.08340621115483   12.87471679239532
C        -2.13452585722254   -1.27278841051497   12.95347115669299
C        -1.42398420198570   -1.85351345391961   11.91332957227625
C        -1.00239055332163   -1.10943618064280   10.82070461473458
C         1.64785655431754    1.37052371616761    4.69878699310368
C         2.12505840490602    2.20050589871274    3.53105136114124
C         2.74782533119957    1.57983066876798    2.45542302047922
C         3.18762283005325    2.34725409903136    1.38569733606244
C         3.02217610856109    3.72431459512954    1.36383347519417
C         2.39785614487819    4.32372163524306    2.44781175681904
C         1.94834377102516    3.57750832480959    3.52780915705018
H        -2.22755211584656    1.90487721096931   11.74949357139430
H        -2.46035190927887   -1.85941926136316   13.80097227966513
H        -0.45135365838753   -1.58330809582921   10.02273321668358
H         2.88686706202546    0.50815905683661    2.45631222138476
H         3.36981965040784    4.31262102537573    0.52622975481908
H         1.46510552082154    4.06605966148811    4.36022271472348
H         0.50906492176121    3.06338188275444    8.94310249013850
H         1.33859770778051    3.76038572045654    7.80520632004210
H        -1.62524826735635    2.65862552150527    7.82773051579852
H        -1.34916790221254    3.25821208855109    6.40187750833940
H         0.27214373730982   -0.60461203131605    5.33120037262177
H        -0.54822933621285   -1.30490305702123    6.47395176368431
H         2.41681360965596   -0.23246931443054    6.44191888552725
H         2.14929099145270   -0.82036674348855    7.87413146414079

