83
CSD_code = GEPJOD | q = 0 | S = 0 | Stoichiometry = C29H45ClN5Si2Y | MND = 6
Y        11.95510132334005    2.19155139698398   13.76037179018367
Cl       13.25344551251305    1.56894312032537   15.76386074641453
Si       13.67299005635554    4.99015570234134   13.83052532786013
Si       13.94722847572683    0.18659128833165   11.13220173955226
N        12.10162649394202    4.34401606004053   13.51721234788233
N        10.95387849893532    2.57084192190888   11.90336739657531
N        12.63830165650283    1.12205405266696   11.75863554510617
N        10.05057401363634    2.57976995359348   15.47095818609121
N        10.53491077309964   -0.01026041224720   14.05658327633339
C        11.00860207663799    5.12672419350343   13.24070630100739
C        10.82489936392814    6.33113710335876   13.91903725366476
H        11.53703798540997    6.58704733479909   14.68916557928766
C         9.78712073606829    7.20809502803896   13.62764174109110
H         9.70247634869547    8.12927279400426   14.18750537040230
C         8.89095501274569    6.91638682768475   12.63475448889076
H         8.09496054421683    7.60154629790706   12.38396737390504
C         9.00118190494463    5.70820358999288   11.91930333003314
C         8.08185949371588    5.41545295906681   10.88805935187121
H         7.31017108432272    6.13960844375398   10.67012073543432
C         8.16074988903742    4.25006565648066   10.18065353422140
H         7.45959448017612    4.03734657172123    9.38637446631559
C         9.14345553846242    3.31141540829389   10.49611964205240
H         9.18667285792121    2.37155664015644    9.96405890522013
C        10.05926211516493    3.55571626000817   11.50166331648592
C        10.03511784195834    4.78109645581992   12.23130873339007
C        11.81188615612434    1.93977724466538   11.12382388289141
C        11.89145080721045    2.22242012477487    9.67322826073365
C        12.27675794664442    3.49181854231804    9.25613047309468
H        12.50599703844882    4.24463538514971    9.99712189014090
C        12.36863241043015    3.77817215927193    7.90658141483796
H        12.67505417052332    4.76294011185559    7.58614386589020
C        12.06405701218821    2.80721639764219    6.96686375729782
H        12.13276691974057    3.03364898713482    5.91303483426365
C        11.66628995119650    1.54654742927979    7.37946650857379
H        11.42057472282861    0.79034255761143    6.64786841650046
C        11.58208448379124    1.25257786512585    8.72857323038709
H        11.26492206656832    0.27390129922873    9.05764340091161
C        14.86181725805118    3.62979381830459   13.18093494916008
H        15.86416605389909    4.02159014697812   13.03400119060524
H        14.52457447386772    3.22168240786246   12.22671282741429
H        14.94601401547362    2.81219166675102   13.89646742286970
C        14.09382786343602    5.28828788673897   15.68222883820513
H        15.13383348299052    5.57695463706311   15.79593507134543
H        13.94316854279471    4.38149259582727   16.26202906881073
H        13.48869041170587    6.07151196578698   16.12940799528453
C        14.01343278845429    6.59297696590461   12.84354560844432
H        15.05420379433844    6.88808251849505   12.92003846296721
H        13.40867704028580    7.41604267974877   13.20533881504225
H        13.78108853369797    6.45862350854887   11.79211755218181
C        14.94530973277993    0.98392274058257    9.71020920183531
H        15.16838755773241    2.02602482327683    9.92010304862625
H        14.40254704246283    0.95108455641009    8.77069552299820
H        15.88946652871342    0.46838065403087    9.56478636566489
C        15.08042988811749   -0.07432428639817   12.65007209333924
H        15.95826660216535    0.56226140256499   12.60011789773664
H        15.43136238602546   -1.09960174730632   12.70990817928232
H        14.56541077608741    0.15308936799739   13.58306136771831
C        13.35086076476559   -1.53799500542842   10.53526695855188
H        12.72752621025710   -1.47248284585136    9.64933832084293
H        12.78589021638870   -2.06402285449770   11.29992212836194
H        14.20515237444725   -2.15734843265517   10.28259490794236
C         9.80035729330165    1.25975870010915   16.07418292773591
H         8.97279027156180    1.32230762396743   16.80072564716293
H        10.70667213072769    0.96187003940384   16.60935655933056
C         8.80147886100355    3.14797017486195   14.94996428271588
H         8.01250979327457    3.13101933442605   15.71558736106212
H         8.45880284617133    2.60220373830205   14.07174720329969
H         8.97043497451236    4.18086510512924   14.65001915960823
C         9.96934143525475   -0.50542989579339   12.79751482999445
H         9.42147207768284   -1.44636931030165   12.94940113248269
H        10.77549052395064   -0.67753773714751   12.08560027826492
H         9.29193592543393    0.23659592699568   12.37378241575054
C        11.47799991844170   -1.01732246845354   14.56093299843624
H        10.97459254019873   -1.98221037269521   14.71950597277882
H        11.91792646960139   -0.68797986477619   15.50147498719656
H        12.28188705497926   -1.15402921311845   13.83680978743801
C        10.55170657292618    3.48052185772332   16.51955118602422
H         9.81275276338585    3.59380453543247   17.32470302883870
H        10.75776616449802    4.45964779886422   16.08785008646838
H        11.47476583403141    3.08141187863631   16.94003806889468
C         9.45211061005746    0.19372144892074   15.03295915073349
H         9.22241726211456   -0.74664374341676   15.55708836614012
H         8.55073657480368    0.49867251959959   14.49603435962332

