45
CSD_code = GEPKUH | q = 0 | S = 0 | Stoichiometry = C18H23ClN2Ru | MND = 8
Ru        4.75909930752719    5.58436184683808    3.59831002294161
Cl        5.51809168473984    7.89445386178826    3.62839675755128
N         3.46405310852585    6.23405494701442    5.08151030015511
N         3.35296338161801    6.25836710388989    2.25631172717108
C         2.87790528939052    7.43560501702780    4.98578465540483
C         2.00807679081098    7.93652751670441    5.93753541637337
C         1.70417119278981    7.17566353291929    7.05397572436735
C         2.29053447228534    5.92262549071043    7.15038857816349
C         3.14708750400083    5.49693840322388    6.15356443781411
C         3.64186064632720    7.18848637221195    1.33806141475678
C         2.70313506237338    7.72389097906886    0.47434188119337
C         1.38842891123670    7.29394722479097    0.54438891071308
C         1.08021126018017    6.33151167207020    1.49476295997926
C         2.07805690603110    5.84539976820037    2.31665866899153
C         5.96249379510928    4.18331870472301    4.86823530149153
C         6.49161065157130    5.46563256044632    4.95222598477971
C         7.77687248906267    5.87585097859601    4.27038294763202
C         7.80807379623743    5.54852977743196    2.76646601940121
C         6.43064154547223    5.47712322285880    2.13777705788305
C         5.69547917555939    4.30028443238795    2.06394248853016
C         6.17909153231579    2.98046272615931    2.62613290560127
C         6.64285105637533    3.07180936807695    4.08979520827867
H         3.13809791501982    8.04819153673939    4.13204971704961
H         1.58137767805928    8.91726355159605    5.79732886593072
H         1.03442150386714    7.54082513009054    7.81697685621122
H         2.08857050478433    5.27594322446920    7.98989408431918
H         3.58640805142833    4.51148080233141    6.21087487292117
H         4.65752368033108    7.55779593234006    1.31842519263017
H         3.00755997658499    8.47311981811588   -0.23943739602017
H         0.63198232303210    7.69288870714574   -0.11344208420535
H         0.07437826401463    5.95646511215471    1.60159613262677
H         1.84985254290327    5.08582088721561    3.05274519627940
H         5.40179585680256    3.81758229280444    5.72734231016243
H         6.28427456186942    6.03819907347788    5.86317523879145
H         8.61892495385576    5.39183059285361    4.78237711154336
H         7.89534249531736    6.95283071508645    4.39636647371692
H         8.32251424767884    4.59972718065291    2.59115779291438
H         8.38135128476639    6.32614650573052    2.25753976687509
H         6.28046853690026    6.20400893687728    1.33990909424094
H         5.02357241406889    4.17877774020806    1.20772051434700
H         6.99295371094807    2.60238983796076    1.99538312993833
H         5.35623458576199    2.26655490421950    2.56064795943870
H         7.72354843183568    3.22411160257890    4.13713984001233
H         6.43148694705662    2.11983809640775    4.58150482805107
H         3.95196997361609    4.30116231170616    3.62437513300777

