32
CSD_code = GEPLOD | q = 0 | S = 0 | Stoichiometry = C10H13NO7Zn | MND = 6
Zn        5.06418895731770    0.59917737693009   10.18839355223147
N         6.66272254892258    0.54647922760740   11.31024910990698
O         4.16927889014119    1.79886017892470   11.29032600058597
O         4.08778668932314    3.14056971820506   17.48808801445784
O         6.04321049306435   -0.54845537272526    8.99294698899121
O         7.82761331856590   -1.86460735330758    8.97090086340461
O         4.12891802119048   -1.23707915658786   10.97231209471515
O         3.39023003334952    0.50483157687086    8.80526533401585
O         5.65770339411221    2.25329593006921    8.71226539071447
C         6.59706471649452    0.73446060610627   12.57682428226922
H         7.39280437357022    0.34149211444523   13.21919035428030
C         5.55262330224906    1.45518207573440   13.23367581778505
C         5.67605385777530    1.66995626857930   14.61001986328669
H         6.56037470292115    1.30148051456962   15.11442187117456
C         4.71401367092382    2.34319840193125   15.34133298499271
C         3.56597177470355    2.81384896123652   14.67069121265044
H         2.81943133489153    3.33591645568568   15.25097656460851
C         3.40871405349719    2.60932515553165   13.33301631036133
H         2.53070769746341    2.96340191960810   12.81402979347260
C         4.38439793651912    1.93271760337088   12.54933383965063
C         4.87165108451083    2.56371756917720   16.77178282518033
H         5.81282456904834    2.14452874122424   17.18556888139050
C         7.70044863267168   -0.23639514206836   10.71676473798670
H         8.14108629965625   -0.96698078748672   11.40300725884319
H         8.50012148456647    0.42009099720301   10.35367930164034
C         7.15675693935993   -0.97524300562302    9.44632111807785
H         4.46892293731780   -1.90311260162476   10.36309094605215
H         3.17728542452412   -1.19533913779627   10.83309485105375
H         3.12089989014474    1.42585806705015    8.73089345864340
H         3.83814793223842    0.27529228530765    7.98359284315115
H         6.03796335848506    2.99614487515643    9.18960917313861
H         6.37248168048006    1.81818593669360    8.23463436128773

