39
CSD_code = GEPNUL | q = 0 | S = 0 | Stoichiometry = C13H17BrClN5NiO | MND = 4
Ni        2.90179845011869    7.61259861114709    6.27167062575531
Br        4.62048108611554   11.90949904282947    5.48844112098516
Cl        8.31260724581417    9.69283506534569    2.00889975721958
O         3.86458320007615    9.09645388102227    5.73440830161799
N         3.94616307971561    6.42902465162409    5.25455685144891
N         1.66969765744672    5.97831833764276    6.65549310324883
N         1.97989830939263    8.61676073000485    7.47760630215240
N         1.92798201095961    9.76799596979636    7.71861849253844
N         1.74964597793208   10.82348941520672    8.08522462408932
C         5.42270307366255    8.03588259778230    4.23992659831849
C         4.83646196992292    9.15243529498667    4.90902138670070
C         5.40218634521840   10.42534590191051    4.61049826405671
C         6.44452998758235   10.59444144324772    3.74045697872693
H         6.83922565890328   11.57905084201781    3.54530825434646
C         6.99308110448997    9.47377930248657    3.10669879187146
C         6.49533451192008    8.22065850932554    3.34876976912120
H         6.92376603584492    7.36164025766296    2.85528835710556
C         4.93047414037143    6.72228430067760    4.47701257009358
H         5.44691502636504    5.91554411334515    3.94988620549895
C         3.58829877456334    5.03598390730882    5.43598308345011
H         4.13016705170670    4.64210939658485    6.30518405077499
H         3.87035504333453    4.43111778102702    4.56351542289816
C         2.08097458672374    4.96170997272148    5.67187546552683
H         1.58058881722255    5.18188865746120    4.72742450756286
H         1.79056047578385    3.95334560940239    5.98738169301316
C         1.93132435372258    5.54016046773907    8.04216444891242
H         1.76655491615824    6.40693680732156    8.68708755306196
H         2.98716409039844    5.26904446746685    8.11561910084819
C         1.08056298357979    4.37791227272874    8.55527647039659
H         0.02823808192202    4.64323551920198    8.59696714709781
H         1.40473404880511    4.13568276323729    9.56390907561675
H         1.19196609472341    3.48227550956057    7.94861166591508
C         0.24721322189371    6.32258238568223    6.46964145992396
H        -0.06460849835831    6.88428651880310    7.35151207162108
H        -0.35618644918239    5.40997207989860    6.39196974515917
C         0.02899524566057    7.19919662291682    5.23929099315847
H         0.81275321658604    7.97162982550665    5.20294456424401
H        -0.93407140463409    7.69666810127884    5.30653463833229
H         0.05248047753589    6.63092306608952    4.31232048759017

