31
CSD_code = GEPNUK | q = 0 | S = 0 | Stoichiometry = C12H10MoO8 | MND = 6
Mo        3.92457276051751    2.14120997596932    4.37272687907257
O         2.65563739669027    1.11760158339417    4.58105712135666
O         4.66839230506892    1.95187925978259    2.91930324464540
O         5.37448383915318    3.84750995087248    4.76263341220256
O         2.92735758572509    3.72784354897936    3.91471008488483
O         3.53386837123265    2.87269534470893    6.48878072422260
O         5.19135907416641    1.16872422044981    5.45346818207993
O         3.92412706108874    6.88844569546012    2.53431930896820
O         5.10879862055777   -0.00716597885429    8.84423662851334
C         4.98019463716943    4.82611014104864    4.08912564216656
C         3.61558279014909    4.78907135994593    3.58272034545592
C         3.14074123682573    5.82380108465202    2.81102253380680
C         5.15859896212987    6.95415339994386    3.00471559891099
C         5.73637388867572    5.99433298607008    3.77218709272562
C         1.77636775116608    5.84744111817422    2.20924266634521
C         3.99359904795918    2.01117034688156    7.27172155337490
C         4.91902885688062    1.02917762148491    6.72471820115708
C         5.43785952334115    0.04677572429416    7.53562857241426
C         4.28548001880433    0.88661430003523    9.36661619321418
C         3.71129192894949    1.89862069927693    8.66640906594056
C         6.35799221001270   -1.02256592728098    7.05192796415562
H         5.66386912085568    7.86134344403757    2.70447673533689
H         6.75173101503517    6.09342084177503    4.11773821077556
H         1.32482385083777    4.86865523832449    2.35314135942220
H         1.83550905996854    6.07787246613047    1.14734806624102
H         1.15644336529097    6.60536989627408    2.68729815230723
H         4.11485644148643    0.71953815167767   10.42087028250127
H         3.03798437964491    2.59240277416467    9.14122188299039
H         6.40505212578978   -0.96449381249904    5.96706679354165
H         5.99415743520311   -2.00185365062016    7.35657840951993
H         7.35706533962301   -0.88780180455407    7.46528909175232

