72
CSD_code = GEPQOH | q = 0 | S = 0 | Stoichiometry = C23H44I2P2Pt | MND = 4
Pt        7.78244908799650   -2.18954718877016   -0.00170275508403
I        10.04261886051639   -2.37414888918320   -1.31054769870825
I         7.96321932391512   -4.45112472548473    1.30574050140621
P         7.64312061000712   -0.03798666720600   -0.69784007310960
P         5.63159513152999   -2.04681155538370    0.69529312227477
C         7.57447452251089    0.36504360452749   -2.47447361847363
H         8.46619344113294   -0.05511708989689   -2.94185297060021
H         7.54687711046056    1.44071296847873   -2.64357870949297
H         6.69554326624513   -0.10300179240087   -2.91902629868416
C         9.02422899169427    0.97723491122565    0.00442625945236
H         9.86352859308320    0.76765578167398   -0.67066911738599
C         9.35204177021812    0.44283045304259    1.40970454070518
H         8.92898501986394    1.11127166423961    2.16024338338173
H         8.84909232958673   -0.53549296338979    1.55345692250231
C        10.84079584333899    0.19962189495572    1.68239508967827
H        11.12103788941983   -0.74858813413493    1.21877818209179
H        10.97348599626505    0.08432949888285    2.76065295895023
C        11.82223476323921    1.24726731531731    1.16389600342968
H        12.82653648564501    0.85686159792921    1.34664057323601
H        11.72491137938884    1.34141441377427    0.08217187853304
C        11.74950587378112    2.62792031630899    1.81232860523167
H        11.92973479328099    2.52725552760001    2.88538397417421
H        12.57069071686204    3.22115621521656    1.40063059601642
C        10.44928797940955    3.41414727288871    1.61753775108537
H        10.65390677361278    4.44607386507429    1.91386719407212
H         9.68479447762274    3.04632392492345    2.30164122730281
C         9.89851198338997    3.41065929672086    0.18521305757807
H         9.55205091847119    4.41836000380188   -0.05870981378236
H        10.69320803201398    3.17001634655065   -0.52152698178742
C         8.70651392674117    2.47309856189383   -0.03334786371348
H         8.27497272295780    2.71567248054180   -1.00934088387659
H         7.95158801542342    2.69867004541110    0.72488249677463
C         6.07720334229096    0.60449267797377    0.05324514367038
H         6.30933754200465    0.75357098328036    1.11909914789702
C         5.36471731932525    1.84015613107768   -0.49415638266514
H         5.80264102793946    2.77076129117974   -0.13909583773571
H         5.40446010812132    1.84173989550125   -1.58433569453739
C         3.90414758534747    1.68321233876265   -0.02220214596552
H         3.66774118356478    2.39945616177066    0.76402047454396
H         3.21647161767970    1.86479432774031   -0.84774808568708
C         3.76309224312285    0.23977879287445    0.50023193385405
H         2.82609072623740   -0.21235041152006    0.18185753700591
H         3.78962115767309    0.23518921548924    1.59099870932722
C         4.99169055171814   -0.47869172220186   -0.05269165367418
H         4.83689376560948   -0.70796023047891   -1.11830802805182
C         5.22740184528770   -1.97932444727109    2.47168642001635
H         5.70573745372532   -1.10768598921601    2.91967463483629
H         5.63601673765733   -2.87753996732489    2.93685884720988
H         4.15188706767431   -1.93832856408598    2.63909404796758
C         4.61405065032368   -3.42499449767875   -0.00944664321137
H         4.82310505247277   -4.26614575213934    0.66350782980207
C         3.11856450215024   -3.10576054190714    0.03031929610727
H         2.87736605174275   -2.67754070965881    1.00811368776671
H         2.89325663873616   -2.34805657329835   -0.72526182072319
C         2.17940193637644   -4.29594830905532   -0.19129102048739
H         1.17225964727639   -3.94886316332223    0.05406307889004
H         2.41931366770648   -5.09288507699115    0.51316418393920
C         2.17451453763994   -4.84282128549096   -1.62508847185188
H         1.14218345004813   -5.04531964529496   -1.92146347193201
H         2.54297466088007   -4.07695392771294   -2.30730602154967
C         2.95897699699139   -6.14353935422463   -1.82368128819292
H         3.05921354468254   -6.32092632622890   -2.89724680847454
H         2.36471616336708   -6.96506765169107   -1.41415781573430
C         4.33963472758929   -6.21990439732865   -1.17568001830584
H         4.24582458109179   -6.12515733983415   -0.09369991155095
H         4.72856173264195   -7.22430233816352   -1.36101698254337
C         5.38856725598837   -5.23864648479678   -1.69190382636098
H         6.33642182436877   -5.52115329431626   -1.22892346465364
H         5.50370570147283   -5.36900471531254   -2.77046198296130
C         5.14725201253420   -3.75021846766654   -1.41578488629507
H         4.47893004045402   -3.32469173999659   -2.16502377826306
H         6.12611671885024   -3.24814784657213   -1.55892646460648

