29
CSD_code = GEPSEA | q = 0 | S = 0 | Stoichiometry = C12H12N4Pt | MND = 4
Pt        1.28094636483294   -0.09379373814318    0.53296855913948
N         0.85223029473997   -0.68967601647353   -1.27180660332438
N         2.88015673530215    0.52596928474012   -0.39172582971110
N        -0.31655774174410   -0.71701876533268    1.45804156186312
N         1.70881671320055    0.50317359946216    2.33769209705836
C         1.77246143835452   -0.41772852310551   -2.20823479087513
C         2.92614753769666    0.27266381247971   -1.70757239253471
C         3.96328908972639    0.61263702341975   -2.59136309120194
C         3.86016470828127    0.28201059813627   -3.92009576683102
C         2.73238595441368   -0.39147683356072   -4.40947421788490
C         1.70033842487528   -0.73963695870952   -3.57331401454372
C        -0.36159013042197   -0.46633138333487    2.77440113925038
C         0.78978456812662    0.22834273382089    3.27447119940627
C         0.86140735351652    0.55025745409664    4.63960310664599
C        -0.16782746023921    0.19602624149296    5.47668193048702
C        -1.29232408106195   -0.48362805754503    4.98825657499341
C        -1.39553275652159   -0.81320290202827    3.65926909011041
H         0.03014435291762   -1.17945794217210   -1.61932149514837
H         3.69578274628330    1.01528762909612   -0.02869313420097
H         4.83314802053745    1.13217412228647   -2.21390221064613
H         4.65586440572049    0.54204798644792   -4.60215823838858
H         2.67997656088471   -0.63755080263696   -5.45952358344912
H         0.83049751107922   -1.25930636145459   -3.95063723280612
H        -1.13004486299118   -1.21024051386961    1.09545354364344
H         2.52901007774180    0.99643730038036    2.68472524383890
H         1.72895196459939    1.07413840379228    5.01638223965886
H        -0.11563051977025    0.44180238962209    6.52682890336009
H        -2.08531635900449   -0.74937638720573    5.67126437080741
H        -2.26288091107594   -1.33734339370144    3.28238304128332

