97
CSD_code = GEQBOT | q = 0 | S = 0 | Stoichiometry = C43H48N5Rh | MND = 5
Rh        4.56742707936522    4.42758616481076    0.47335347133090
N         4.63868658581001    6.02173756487537   -0.75616334775892
N         4.94767121329264    3.22072690159229   -1.09428800206900
N         4.32257361272408    2.81916253912084    1.66135229528442
N         4.02318285256794    5.62074927024881    2.00252528436768
C         4.40820046826330    7.32132567102618   -0.41458511231603
C         4.62621093790791    8.18402177394464   -1.55210100906579
C         5.00209899964164    7.37744288898448   -2.58283123321177
C         5.00128301515935    6.02724055719053   -2.07027362437015
C         5.29639135869721    4.90661890009592   -2.82369962578007
H         5.56489888246659    5.06080662453952   -3.85679741108952
C         5.24985101624329    3.60215172837075   -2.36748382595671
C         5.49252517493499    2.44232176010477   -3.19248636037720
C         5.33255853764839    1.35425200073103   -2.38902653522671
C         4.99961381750598    1.85818700970207   -1.07737766820616
C         4.77535392491322    1.05935287168968    0.02960643857252
H         4.86277236772018   -0.00726922664118   -0.10592797850282
C         4.45490697140864    1.51178234734526    1.29721692859545
C         4.22644814731963    0.65071612511510    2.43354560523730
C         3.96976717449306    1.46759627839224    3.49273444133071
C         4.03632872237849    2.82098363458396    2.99393572793156
C         3.82097254907729    3.94764924014511    3.76601821666138
H         3.62527767876891    3.79869358128835    4.81607692248732
C         3.81240914367492    5.24775084697742    3.29662047333563
C         3.53982775660095    6.40737069222607    4.11298647332461
C         3.58181304209637    7.48546114241260    3.28196120709701
C         3.88911256106736    6.97690641624682    1.96580698686097
C         4.04489359849765    7.76996811189181    0.84274567811749
H         3.88766026074770    8.83031467074472    0.96188078883269
C         4.50446023534377    9.67070284073396   -1.52940404098655
H         3.63329894488942    9.96411556323880   -0.93861356322844
H         4.35385410535186   10.03948246025255   -2.54601741401983
C         5.76125012609682   10.31941345771060   -0.94320780170342
H         5.65499188444305   11.40170833376039   -0.92180705540235
H         5.94168792861129    9.96741717644142    0.06977581503816
H         6.63131939401603   10.06903413161615   -1.54513605447015
C         5.38742330810577    7.76232424061712   -3.97173875944845
H         4.97465212123472    8.74566656518550   -4.20552462727298
H         4.96868752777557    7.04893525947017   -4.68583694932981
C         6.90930979657867    7.80736460242137   -4.12959980352668
H         7.17782006196479    8.07429130484624   -5.14946006211071
H         7.33649881751564    8.54518479971820   -3.45483967783286
H         7.34760511338013    6.84045979842098   -3.89321373752499
C         5.80720142847129    2.48306523455471   -4.65040688746890
H         6.29739510783556    1.55249471668321   -4.94341788413560
H         6.50041992467739    3.30189114008936   -4.85701959734237
C         4.53902902240889    2.66546967346920   -5.48805829279476
H         4.78542995334148    2.70968372837302   -6.54670823339929
H         3.85733057862090    1.83364810349099   -5.32659017151796
H         4.02557699226428    3.58312465570349   -5.21017652748126
C         5.42713689762764   -0.09065631723154   -2.74950858252106
H         5.93613980817032   -0.64006654367662   -1.95384629815954
H         6.02061762910635   -0.20040094981447   -3.65920822169072
C         4.04113541413570   -0.69792822455669   -2.98053615608051
H         4.12451914677000   -1.75390102309588   -3.22829733766723
H         3.42490636702966   -0.59628347566779   -2.09012546527884
H         3.53828834933291   -0.18931184651263   -3.79974199942323
C         4.23757792608082   -0.84082534443307    2.38957372434452
H         4.38658619431320   -1.23345972145268    3.39723972367836
H         5.06939949048771   -1.18877719356464    1.77227851438021
C         2.92340760392700   -1.38953484297049    1.82833505344351
H         2.95010637030180   -2.47636529071921    1.78947490707642
H         2.08924638250925   -1.08641340783909    2.45681942831102
H         2.74667162798035   -1.00897015748950    0.82491100245948
C         3.63378925007505    1.09195881784764    4.89703266579053
H         4.13225503032114    1.77217717674018    5.59173080840391
H         3.99902637677378    0.08361897941665    5.10188880072056
C         2.12273811332111    1.13514705860954    5.13764277113365
H         1.89413547810112    0.87610063981885    6.16917377742935
H         1.73076082399205    2.12860431360151    4.93175392956530
H         1.61629633540164    0.42887340566355    4.48379812753011
C         3.30814985331488    6.37726717293743    5.58632185676380
H         2.66315042319424    5.53392107553023    5.84519569028124
H         2.79724483244939    7.29160610129768    5.89431324081675
C         4.63016860774007    6.26047003034417    6.34908693742130
H         4.44870566758748    6.22429258574080    7.42110234263177
H         5.16467591876097    5.36065017636361    6.05323215346509
H         5.26596497308951    7.11601549745715    6.13433433585554
C         3.41742952206995    8.92906571330886    3.61977565728048
H         2.85026064517788    9.02445331854349    4.54788038490152
H         2.85192977438399    9.43429551426636    2.83305996473634
C         4.77666531996079    9.61263375212281    3.79128694678090
H         4.64505565462014   10.66705814371980    4.02333366285839
H         5.33409691279890    9.14725297737466    4.60047352289562
H         5.36969826714435    9.52739292070844    2.88369534352550
C         7.33335349389849    3.49650564252035    0.98139234938827
H         6.95706213742541    2.50998051882247    0.74916433713427
C         8.67324654375954    3.62586432664038    1.31922038782350
H         9.30295954599866    2.74835391478834    1.34279359478434
C         9.20806025462682    4.86101298489454    1.62614752627745
H        10.24910517841935    4.96977579133854    1.89199544069694
C         8.37651833221743    5.97866786274037    1.58801567381353
C         7.02804039322268    5.85187733685697    1.24727059581089
H         6.42673395983036    6.74984320595697    1.23197828631494
C         6.49451663449885    4.60759319655843    0.94286169108095
C         8.88138953578586    7.26138411763807    1.89635208934301
N         9.27981717834544    8.30849419430118    2.14260293439312

