114
CSD_code = GEQCUD | q = 0 | S = 0 | Stoichiometry = C43H62CoN3O5 | MND = 6
Co        4.60072502908773    5.33752687791917   10.32791475166896
O         3.16516212320641    4.42662345755917   10.98988179019037
O         5.48139485259379    4.79432090148601   11.82109682549403
O         6.13787848327374    6.12534010551715    9.78193445741326
O         5.22254644945426    3.82944576676484    9.52277283291255
O         3.55222792528677    2.99224041625447    4.21397225328487
N         4.01890829588160    6.93049010428458   11.19665814865733
N         3.64374765836693    6.02506558343733    8.81867188764202
N         3.60068226333423    3.66124390904252    5.29698953991553
C         3.52768096906312    3.60102905734740   11.95081986111827
C         4.85047801551225    3.81940754470578   12.43591599217671
C         5.37040976803856    3.09555045809084   13.52569283537848
C         4.53653940306261    2.12932675085806   14.05685454047759
H         4.87335415240440    1.51971391487571   14.87913423962836
C         3.25195454619041    1.89529032448781   13.57040756435301
H         2.67814405814120    1.11532193249740   14.04353311309087
C         2.70140234048983    2.61830854033712   12.52890941438353
C         6.76461237298223    3.39234637852821   14.05700383917979
C         7.80067475256578    3.12804896524901   12.95762202477613
H         7.80728973846158    2.07488530279115   12.68548985045766
H         8.79592570339354    3.39844314922165   13.30571412990477
H         7.57481865930114    3.71289129326699   12.07126565925569
C         6.83772392957210    4.87071381798642   14.46512883468074
H         6.72620200061870    5.50080757986888   13.58782196433901
H         7.80130648120452    5.08693165848195   14.92285830606390
H         6.05227612759753    5.10779573949262   15.18131863645543
C         7.11713773125710    2.53649726899780   15.27688866880027
H         6.42128667362350    2.71380970690770   16.09387171627903
H         8.11682390548685    2.79493481480893   15.62098123308119
H         7.11187291908672    1.47805812582198   15.02782028766600
C         1.30416054452291    2.37737516288202   11.98324811027006
C         0.54498149760367    1.29373606990056   12.75255317556095
H         1.05435663526175    0.33550685618487   12.68511569820632
H        -0.44865036535539    1.17774655143686   12.32356142099889
H         0.43159921453197    1.56388066741230   13.79988877812438
C         1.43308631169911    1.94189952397208   10.51830455237174
H         1.97881417141530    2.69626252623748    9.96209534269304
H         0.44902605055363    1.81100832219694   10.07124385167721
H         1.97499150311794    1.00072142775243   10.45170161024364
C         0.50359250594220    3.68382285701494   12.06607977508403
H         0.40454017322904    3.99926310468500   13.10305076634739
H        -0.49217308286025    3.54457815296064   11.64877591269444
H         1.01135324471424    4.46782592394015   11.51151070770069
C         7.06204493468779    5.19711373026818    9.65805975133879
C         6.53957194305779    3.87770254429919    9.50382319075003
C         7.38453080501489    2.77179411191602    9.29479734727577
C         8.74022250460109    3.04632520487234    9.27542584097936
H         9.44768206448473    2.24468856815514    9.14179346258679
C         9.25368056257181    4.33185579769795    9.43904775142367
H        10.32549228913472    4.44382266120058    9.42204737888973
C         8.44791942151969    5.43881846870127    9.62789594387088
C         6.80591251183038    1.37892777845026    9.09820913396543
C         5.85164477010229    1.03440391068598   10.24890557190310
H         6.38359499605568    1.02626220266134   11.19685418191953
H         5.41378518880723    0.05061142405872   10.08961318067620
H         5.04982641637520    1.76263848755974   10.31795985075714
C         6.02860600690435    1.37012810612309    7.77503583593814
H         5.25172832181447    2.12827918776490    7.79955778054475
H         5.56547132685573    0.39861393266292    7.61298059201474
H         6.69706508833835    1.57608753611851    6.94063667242511
C         7.88919172164200    0.29879261915967    9.03387068096421
H         8.54661208652182    0.44826386722621    8.18051057957351
H         7.41792569705552   -0.67632945354301    8.92719091792639
H         8.48349702279831    0.29005783076430    9.94446679621442
C         8.97156453283691    6.84900161221930    9.83501364424636
C         8.39623632854165    7.75670059125121    8.73966202154637
H         8.71850960447390    7.41293550146881    7.75828942745115
H         8.73752054539061    8.78080944114120    8.87911199131254
H         7.31070682328246    7.74049219795201    8.77745520689984
C         8.50473856674284    7.34023632146344   11.21209597565348
H         7.42027723785119    7.31209699065415   11.27011985903091
H         8.83926702737695    8.36175441044946   11.38422404268537
H         8.91066980120596    6.70222790008832   11.99446052413597
C        10.49907573639421    6.92466100014423    9.77912468727175
H        10.94930583036092    6.31782473293668   10.56098487367328
H        10.81456066349633    7.95560608483022    9.92817105340900
H        10.87201806473879    6.59349066698534    8.81260496437560
C         4.26992789041942    7.35162273491690   12.42932341522194
H         4.83798461991819    6.68124898658581   13.05788571241587
C         3.83884441064456    8.57544054954125   12.90593187531874
H         4.06751985604409    8.86865655636675   13.91727659901257
C         3.10730286272749    9.41373559286083   12.06289273744146
H         2.75979190923476   10.37407927801252   12.41169875900445
C         2.84149608187876    8.98969681809181   10.78212804774145
H         2.28389707888685    9.59960065398780   10.08866673666939
C         3.31140080814865    7.73496591021393   10.36756656373003
C         3.10957504459448    7.17866094322158    9.07917258443242
H         2.51693519920320    7.71502132324666    8.34125558821399
C         3.42335698519458    5.47570022748296    7.50048258489078
H         2.77478276392569    6.16830255546257    6.94271676856991
C         2.75794728676952    4.10628635161921    7.59292895008730
H         1.81397412086470    4.19346633273777    8.13299495323724
H         3.41527817513985    3.45967720396339    8.17343658377219
C         2.48168637940972    3.49010192876586    6.22099339476652
C         4.55604930837608    4.76615454736751    5.33999409286105
C         4.74749520988687    5.30631170652846    6.75764135455091
H         5.37199852964629    4.61975725712041    7.32681290822036
H         5.27135086878906    6.26262563595690    6.70441662844919
C         1.22653310087102    4.10554178496994    5.57670430489440
H         1.28508773686688    5.19006050022789    5.53915420503158
H         0.34342202645341    3.82476329283119    6.14414032219736
H         1.12656152939885    3.72804732570789    4.56156380329205
C         2.25535496103947    1.98219252002473    6.38729660287435
H         2.04361308531097    1.53319910368878    5.42084752885940
H         1.42198389519010    1.80421185485442    7.06035732640118
H         3.14444197458007    1.51124621473660    6.79743780764617
C         4.07079721505548    5.86438398565825    4.37751947584815
H         3.85353453057310    5.41720129516274    3.41014520088255
H         4.84539979827323    6.61599073046635    4.25095631537108
H         3.17081890698044    6.35111901227487    4.74346773089172
C         5.89798279476005    4.22667798607229    4.82968372806403
H         6.25619511559461    3.43528469658924    5.48264302932007
H         6.63571404147640    5.02344420124596    4.80751512325296
H         5.77404172209588    3.81998983958103    3.82977504224006

