59
CSD_code = GEQCOU | q = -1 | S = 0 | Stoichiometry = C32H16F2N8Re(1-) | MND = 6
Re       -0.00000190112518   10.91800004876398   10.91800005012536
F         1.95375992484420   10.91800159594124   10.91800208327701
N         0.00054844759009    9.50671744573937    9.50703667573628
N         0.00000108859269   10.91799999651096    7.56175212809687
N         0.00000178866130    7.56126265026615   10.91799993841107
C         0.00209013303632    9.74590457139514    8.16326521094392
C         0.00595957616919    8.47347282085866    7.47398649176872
C         0.00988907138412    8.13181150852937    6.13089976309325
H         0.00965656860203    8.90087549052505    5.37377404400072
C         0.01435366431768    6.78818483395806    5.80108426308155
H         0.01796985601947    6.49220893181135    4.76068497335523
C         0.01492152225823    5.80228001099923    6.78654731618349
H         0.01864358948037    4.76195762196896    6.49012312115625
C         0.01058942954225    6.13113878286032    8.13041266824007
H         0.01134193906250    5.37298005356131    8.89851881700897
C         0.00613166225357    7.47395400916955    8.47315254048489
C         0.00216903938172    8.16289148049833    9.74591367285811
F        -1.95376371142381   10.91799827624560   10.91799777730112
C        -0.00208781046747   12.09009564115910    8.16326520711451
N        -0.00054522070324   12.32928284106259    9.50703648723703
N         0.00054364229063   12.32928270378261   12.32896341232526
C         0.00208797292119   12.09009558995911   13.67273484432100
N        -0.00000021286920   10.91800006837445   14.27424790183830
C        -0.00208858731011    9.74590453090582   13.67273494536382
N        -0.00054392965641    9.50671717413769   12.32896348867915
C        -0.00216531361618    8.16289153287713   12.09008642416885
C        -0.00612999320200    7.47395407338521   13.36284748577227
C        -0.00595925384800    8.47347275517651   14.36201370043836
C        -0.00989095390650    8.13181138017086   15.70510030633048
H        -0.00965930403240    8.90087521150655   16.46222619254807
C        -0.01435598428200    6.78818469706514   16.03491561073741
H        -0.01797334121769    6.49220873615041   17.07531487659713
C        -0.01492256814789    5.80227994264093   15.04945246365246
H        -0.01864492285061    4.76195752959228   15.34587656215067
C        -0.01058873763111    6.13113884467952   13.70558723552586
H        -0.01134004085235    5.37298019465400   12.93748095080322
C         0.00595938692328   13.36252730234887   14.36201364246214
C         0.00989093187579   13.70418859636948   15.70510032389288
H         0.00965943139614   12.93512461468042   16.46222605834547
C         0.01435615226289   15.04781529222302   16.03491583770367
H         0.01797341218375   15.34379113731994   17.07531514404020
C         0.01492278620824   16.03372006232651   15.04945287452493
H         0.01864484813774   17.07404247246353   15.34587705125375
C         0.01058904959396   15.70486126070378   13.70558748834339
H         0.01134039244970   16.46301996975239   12.93748134198211
C         0.00613064544984   14.36204610135638   13.36284758883186
C         0.00216589218152   13.67310862975560   12.09008644025740
N        -0.00000108023789   14.27473742699856   10.91800008755144
C        -0.00216779615194   13.67310866601866    9.74591370694235
C        -0.00613131494111   14.36204608008132    8.47315250719025
C        -0.00595870136285   13.36252723371429    7.47398642217901
C        -0.00988913554824   13.70418835189856    6.13089969255319
H        -0.00965620444976   12.93512427054391    5.37377404764968
C        -0.01435459824191   15.04781492724946    5.80108416209618
H        -0.01797119974968   15.34379076609363    4.76068486483142
C        -0.01492259102344   16.03371982045545    6.78654716325702
H        -0.01864484793483   17.07404219882909    6.49012294385997
C        -0.01059014222740   15.70486117589269    8.13041249462440
H        -0.01134244605912   16.46302006604169    8.89851848490082

