88
CSD_code = GEQCOX | q = 0 | S = 0 | Stoichiometry = C41H44N2Ni | MND = 5
Ni        1.29458770933642    4.15309218230186    2.41533228186151
N         3.00429626620620    5.07451885295775    4.35476956831960
N         3.07863446946571    7.23301251845766    4.55462816556619
C         4.35097424065845    9.29375528246058    4.40603575510807
C         3.37174790859746    8.52994856997309    5.05121028404451
C         3.23280383041127    3.67583601610241    4.38003222005432
C         2.43054411806790    2.96252415018887    3.45740241710441
C         2.38883565925530    6.94374039263702    3.39111665312741
C         2.31197573429848    5.56946656651833    3.25416534297843
C         4.02501993712089    5.97211324322260    6.46902191784454
C         2.65293150147835    1.58032919649512    3.43644476215335
H         2.08022039048100    0.95299698752005    2.76716101626235
C         0.00340687085454    3.93502560346226    0.96814421755422
H         0.40466560626167    3.85493780865878   -0.04311038424646
C         5.58732321312163    6.70106819582337    8.14828216818812
H         6.40984629416779    7.33642972835369    8.44109232166474
C         1.92524221840239    7.94835319028906    2.44498834834595
C         0.03231448813786    2.76815874181925    1.76679298282238
H         0.29253990359538    1.86132873278400    1.21727702499863
C         4.62102946208144   10.56196359049600    4.90234577298906
H         5.37526550330820   11.16970174285250    4.42756542222855
C         3.43916934419275    6.06889029004274    5.13772198907232
C        -0.16954664151763    5.22394991490806    1.48395462012341
H        -0.08932794064380    6.03847576986154    0.76537647265246
C         2.66716567934935    9.01649387616951    6.15821917402490
C         3.47685279749440    5.07594488788183    7.39056482029583
H         2.64898871346456    4.44914304546267    7.09441318269419
C         3.93795759423979   11.05869363849208    5.99505025081236
H         4.15966916423397   12.04852192426606    6.36512376638710
C         1.58276516067976    8.21501397874331    6.84248628905505
H         1.55579464805178    7.20537286787248    6.42394255075831
C         5.04607890354476    5.80356963078850    9.05293671620102
H         5.44478518879791    5.73663845929370   10.05388437452620
C         2.96851825688358   10.29316875732919    6.61309216028007
H         2.43555538336946   10.69574384388072    7.46011799162503
C         4.22091714772966    3.08985189113691    5.15478550895340
H         4.86202336497329    3.68398142771151    5.78898811879921
C         5.08083082058070    6.79008064363354    6.86412492430949
H         5.51332119039188    7.48864319061516    6.16554525119933
C         3.60297734976015    0.96952680953319    4.24146846879325
H         3.73749460839226   -0.10238438452001    4.19123171535031
C         4.39773922286994    1.71959785511219    5.08890082308995
H         5.16069760197767    1.24719516846627    5.69059781155337
C         1.39545118210964    9.17801426125055    2.82812243578096
H         1.30565621499483    9.43256210709080    3.87252255328468
C         5.11835983361757    8.77736032156390    3.20979625249959
H         4.72759732437033    7.79873405449610    2.91860204402732
C         2.01944240779837    7.65129450459666    1.08340838699048
H         2.43737572609241    6.69907299871274    0.78915481956698
C         4.95366289051723    9.71811742216189    2.01324182080378
H         3.90133118873166    9.89656312322125    1.80811406450951
H         5.40431962891730    9.27227260735070    1.12981819011985
H         5.43736315091247   10.67401691033177    2.19700954420935
C        -0.95411718173453    2.48151360625436    2.89077987336140
H        -0.79699746196581    3.13330200288099    3.75231187153855
H        -0.77847023492271    1.46245084730643    3.24708730196294
C         0.96987043981027   10.08405088829628    1.87322512840143
H         0.55962559454945   11.03362921988806    2.18595601731040
C         1.58981222903130    8.55797636738914    0.13506593750599
H         1.66811916800890    8.31590218899373   -0.91495771019871
C         3.98801672715232    4.99331282275279    8.67000797904689
H         3.55724084466091    4.29714569472405    9.37358183188154
C         1.85674090609096    8.09476300535520    8.34392941243643
H         2.87183953379362    7.74998574382347    8.52425558012281
H         1.16710891886932    7.38171374130572    8.78951920118801
H         1.72356985309347    9.05105462058953    8.84283910367539
C         1.06449782639878    9.77960726874743    0.52609671357166
H         0.73131901338244   10.49108529856417   -0.21516234807537
C        -2.80736526955430    3.84170349670674    1.67358618414111
H        -2.28361953765126    3.84438046388305    0.71545997988563
H        -3.87710624703791    3.77743968233218    1.45112904003383
C         0.20916365240792    8.85041844082897    6.60434860993767
H         0.19404146261276    9.88331067223442    6.94425427517885
H        -0.55168652073610    8.29672246538946    7.14960655887449
H        -0.04994928920541    8.82952358244725    5.54826413253071
C         6.60251755956224    8.60608565660152    3.54789160993346
H         7.03983250708841    9.54673437547286    3.87407256508008
H         7.14221808565378    8.26273089057152    2.66852285666763
H         6.74164062739586    7.86986825539568    4.33696816884179
C        -1.09083649947573    5.55168890917305    2.64217221492424
H        -1.04355817467436    6.62968558238985    2.82562903449321
H        -0.75060014865502    5.06763602273840    3.56388797464787
C        -2.42444300942821    2.58231875027644    2.45095025177591
H        -2.65897747246764    1.72321759179375    1.81507101863135
H        -3.04967626326116    2.50650090568681    3.34526053293050
C        -2.56343173525521    5.17656142064548    2.37837392830484
H        -3.09791888228456    5.18572989702799    3.33222666099592
H        -3.00401345343918    5.95672653070461    1.75017315714543

