50
CSD_code = GEQFAK | q = 0 | S = 0 | Stoichiometry = C17H26Cl2N2O2Zn | MND = 4
Zn        6.44021225718188   -0.31424008666475    2.38669920216100
Cl        8.00992694101212   -0.77348578302432    3.99218249355603
Cl        7.71723916917308    0.51300875178822    0.68774608167036
O         4.96633936758850   -1.28663628398783    1.92581489753430
O         3.18877676955957   -2.88609805740831    0.98573845946707
N         5.53448751424575    1.21348053391954    3.29406509784726
N         9.21431149767222    1.71848519613013    2.91750787986444
H         8.79718442535616    1.45717750853198    1.97002217238682
H         8.87860481189750    0.90369671955286    3.51291057063524
C         3.34888017612485    0.29801130646173    2.74686882772226
C         3.75060790362781   -0.89866580199767    2.09352493388691
C         2.71402572784456   -1.76216941709070    1.58937152132300
C         1.38951179628502   -1.43316672853390    1.72525306845086
H         0.61659275920982   -2.08043328902576    1.34131864435053
C         1.01468532695486   -0.24632667791847    2.37130849408707
H        -0.03328443747910   -0.00916329979178    2.46950751661978
C         1.96724678304103    0.58895390815097    2.87075795640790
H         1.68064360123034    1.50220110707077    3.37235619893726
C         4.24728744943272    1.22674679813391    3.33515614696282
H         3.76511266749252    2.03628554833668    3.89734410924226
C         6.26981719868065    2.21315326507980    4.03591213825791
H         6.90361933288304    1.67894329450986    4.74974635152001
H         5.57196231878224    2.84355094334268    4.60214724688811
C         7.14531528218882    3.08521235312085    3.11453966770426
H         6.96223275887750    2.80110650562509    2.07740012026698
H         6.84908786427061    4.12858637709827    3.22511213889097
C         8.64481922765135    2.99039943469785    3.38678750708433
H         9.14102995743447    3.80644185379038    2.85723880065064
H         8.84763288749591    3.09857472180561    4.45600401483406
C        10.69062963855646    1.66617165089281    2.81077448825099
H        11.11762848032900    2.11194217466100    3.71699696479507
C        11.16460464529118    2.43038476819986    1.57655035558556
H        10.88666724340342    3.48385110851476    1.63796624268298
H        10.68123644529220    2.00083580051551    0.69754660198976
C        12.68168527694317    2.32119500928975    1.43474628475032
H        13.00414941451785    2.86242972656245    0.54421476976101
H        13.16199647524900    2.78486666220744    2.29980714375908
C        13.10722437598313    0.86043708276531    1.34154195113644
H        12.67229426354127    0.41411121801657    0.44589770416265
H        14.19312481293757    0.79501602938229    1.25772723227202
C        12.63044290463994    0.09417924206701    2.57041205875350
H        13.10987067649726    0.50202781296049    3.46335446206286
H        12.91414232993414   -0.95528984971969    2.48954896590507
C        11.11481105793792    0.20362137451854    2.70866765392554
H        10.63431408190892   -0.23742387335198    1.83469986271215
H        10.77470434531087   -0.34200354498608    3.58881809987534
C         2.26440837382594   -3.79902373934362    0.45497403869086
H         1.60694613720625   -4.20557796714336    1.23163777251921
H         2.85863271769586   -4.60583171680346    0.02875035793661
H         1.65427696730403   -3.34414967108225   -0.33337527076756

