68
CSD_code = GEQHUF | q = 0 | S = 0 | Stoichiometry = C26H33N3O2P3Re | MND = 6
Re        1.25289710370596    2.59956590877884    1.05920141869005
P         0.66889799401556    3.39414126922204    3.31042577470591
P         0.44161576046672    4.49524422012662   -0.13252658539560
P         2.48359838861527    1.63077476280125   -0.80656533857008
O         4.74008415847901    1.67228227858617    3.42875890295804
O         4.52606414433511    5.62343934132787    1.29439414394160
N         2.85886525019068    1.73827540856736    2.01830511250444
N         2.49144313893748    4.55508845643038    0.77555678497300
N        -0.08254271730066    1.51122612996469    0.92247544584032
C         3.78942976748305    1.73519709787578    2.74029672372926
C         3.51220447207823    5.08529341037404    1.04457286248592
C        -1.07037600334909    3.77410890952406    3.67810376135415
C        -2.02101444740400    2.98775993692503    3.03322834796257
H        -1.67375417176425    2.24845629849404    2.31694201655757
C        -3.36591380679777    3.17845376671958    3.28938447137802
H        -4.10295909999077    2.56954074020597    2.78751076423631
C        -3.76702195982357    4.15675600708364    4.18669726862062
H        -4.81741794672923    4.31169797126923    4.38479491209939
C        -2.82172578445385    4.94020369680344    4.82711281156169
H        -3.13564182601875    5.70330295872991    5.52481880129972
C        -1.47277547008820    4.75134372067081    4.57823849515945
H        -0.74525757509269    5.37385441660767    5.07765108652528
C         1.65705759113731    4.79531012412711    3.92550678020226
H         1.38261826118897    5.70980508434907    3.40002338045258
H         2.70830880106804    4.57921975369474    3.72943285267277
H         1.51536194011751    4.91333858340232    4.99999111621335
C         0.97023963265946    2.10871126438095    4.57831542520858
H         0.44063632420012    1.20539639352417    4.27497084122261
H         0.60118279950531    2.45562312588707    5.54431231450083
H         2.03512269562281    1.89119541106645    4.63977401920656
C         0.14502813826636    6.04948324211869    0.75868438464535
C        -0.98194839443655    6.15546042454002    1.56671170589464
H        -1.66953789027277    5.32606518536272    1.63124597271965
C        -1.22093425981835    7.31315311248412    2.28531345932575
H        -2.09586546060300    7.37968088971778    2.91566732268375
C        -0.34138384222795    8.37942216737453    2.19698975302750
H        -0.52414602724596    9.28268227888979    2.76053348415357
C         0.77316433259814    8.28630035207971    1.37903057741199
H         1.45838419449841    9.11800202044434    1.30150131066066
C         1.01716332199436    7.12792341054946    0.66363195061179
H         1.89628243920099    7.05889284938625    0.04066743900328
C        -1.25921385799735    4.22235157431354   -0.82953689149531
H        -1.90411495366273    3.80440168535116   -0.06005869682777
H        -1.17493220669538    3.48428669636465   -1.62594345086423
H        -1.69244225164982    5.14156977317964   -1.22259698550728
C         1.22936724378810    4.98827528076453   -1.70877924889748
H         2.26606304216920    5.28349502160317   -1.57278762909789
H         0.65693015801922    5.82057365956433   -2.12067512791137
H         1.17790406307329    4.14314204070155   -2.39631336108781
C         1.66571936861802    1.55874624859321   -2.42839829779439
C         0.31363715675447    1.22412414686272   -2.40025103883673
H        -0.15491118193699    1.07428924300638   -1.43234437400529
C        -0.39727075273544    1.11654131945714   -3.58025351461382
H        -1.44475332991704    0.85518139990680   -3.55868472273423
C         0.23512929926549    1.35157638382529   -4.79239455272609
H        -0.31901268023320    1.27307473656701   -5.71599574432189
C         1.57647905106334    1.69358952421825   -4.82105795840639
H         2.06628647106646    1.88124147739195   -5.76552035681872
C         2.29647281060147    1.79717184237018   -3.64201607190986
H         3.34186429145997    2.06737722867692   -3.67605402419509
C         2.81309121836579   -0.14012212072439   -0.50962276019873
H         1.85625620508316   -0.63503106445261   -0.34513980865695
H         3.41882296423535   -0.23744072886887    0.39009040064054
H         3.32562139957214   -0.57459414489137   -1.36832152905651
C         4.14492126062878    2.32068383383033   -1.08085566572062
H         4.07579764266869    3.33164895534872   -1.48018184371050
H         4.70889725968265    1.68025527278039   -1.75971221894131
H         4.65265634170076    2.35791833377222   -0.11627659873470

