93
CSD_code = GEQHAM | q = 0 | S = 0 | Stoichiometry = C35H53N4Ta | MND = 6
Ta        6.55055243815933    4.02621339436991   11.81239482514013
N         8.67857042520571    6.36409996922047   11.98506506044727
C         6.71990732082546    1.67980034331666   11.66115687779556
H         6.88371165166333    1.48073261370047   10.60216217547993
H         7.63989644303521    1.42033770088817   12.18489890291771
C         9.85017633940383    2.39350077813762   13.47017321288518
C         5.64400307902672    0.70903170930229   12.13966718606538
C         5.92747846077814    3.10473188923866    8.84756116249117
C         7.96502728650699    5.68858332028915   11.08111125855645
C         4.90150711234000    6.96956945686067   12.91386516427424
H         4.39250859786186    7.93258115560992   12.93521136964222
H         5.54580308627613    6.94190662342359   12.03598565256605
H         5.52450673153383    6.89044101490909   13.80039613766799
C         3.87542032475886    5.83113417141278   12.87830639948530
C         7.04628863021214    2.43374093897784    8.33402785830103
C         4.54957197621092    4.45435891756734   12.93680774987956
H         3.79750392135761    3.71028247759180   12.65396254183947
H         4.79250671583510    4.26123232019678   13.98563047160597
C         6.15611120989120   -0.72233843571949   11.90353463852764
H         7.07136286859224   -0.89711608981463   12.46533661803453
H         6.36367554664889   -0.88299694092954   10.84742998070427
H         5.41356949504035   -1.45277407613147   12.22177249964109
C         6.87545438441374    1.42477118750105    7.39356233225054
H         7.75355903361650    0.91755374473326    7.01594241944146
C         8.45418530117366    2.75144829146881    8.75778102858448
H         8.96911064208736    1.83635858193302    9.04608801555966
H         8.46952891109452    3.43624280436157    9.60158790329800
H         9.01055914711852    3.18651221129895    7.92500455953875
C         4.65432692552332    2.73449268037186    8.37781152802213
C        10.72958076394264    1.62288237589623   14.21233603362148
H        11.63458082162453    1.26322953061622   13.74047205195064
N         7.79261626169563    3.66733145868228   13.32314742718236
N         6.03694434773258    4.14729454468400    9.80274969526363
N         8.08054305755232    6.35845302130589    9.92444492982330
C        11.45392576513236    0.46828101564945   16.32121386259442
H        11.33177865910629    0.62618655395740   17.39038903108791
H        12.48104139733691    0.70102984091596   16.04608775098494
H        11.28303758815168   -0.58877437204214   16.11279773821863
C         9.32410976153007    1.79245429457925   16.11875278349357
H         9.10956350527254    1.55651000851533   17.15271559594022
C         8.41686558921445    2.56221915113673   15.40983512953159
C         7.33527878734131    6.01105188239554    8.73935668015319
H         7.87872884645524    5.26916073976899    8.14845621364127
H         7.19884694406521    6.91286857135645    8.13605362998841
C         3.01715679372741    5.97130475511754   11.61748424841055
H         2.22559253866250    5.22432674167979   11.60823851695117
H         3.61923670785974    5.84342790471973   10.72283860437409
H         2.55265352667231    6.95581977376339   11.57984564119095
C         7.48362775817956    4.99180007606001   13.59198304035408
H         7.02332204253667    5.18380397522516   14.56844590786405
C         8.66805462424746    2.88146392668424   14.06106301918638
C         5.37423596186705    0.88035274078084   13.63569308694831
H         4.95546089459554    1.86292825373028   13.83612508341208
H         6.29960040175497    0.77583317792085   14.19772497450711
H         4.66945398921881    0.12767761410640   13.98694920920595
C         3.42164493830325    3.40770332369323    8.90429287973051
H         3.16632148441612    4.28126862213086    8.30208651296778
H         3.58958862356154    3.73532858852795    9.92649759242155
H         2.57561029405330    2.72466098615777    8.87873684635642
C         8.89136450777252    7.44700099996332   10.09962030476385
H         9.12396014111472    8.12860132746251    9.30689771724132
C         2.95120872639187    5.98075259445138   14.09878191587169
H         3.52808917155821    5.96142344416186   15.02094129635119
H         2.22806733521121    5.16834555530965   14.13111207405076
H         2.40553469619175    6.92219048903447   14.05573139220762
C         9.27274305216503    7.44721791700808   11.40458939657531
H         9.89731886321453    8.12962484165746   11.94394972310593
C         8.65406337151413    5.96900430025328   13.37723882928033
H         8.53540394274619    6.86765236339281   13.98949363413886
H         9.61104979863536    5.49430460327338   13.63816799742320
C         5.62601138130195    1.05696416142977    6.92862260362392
C         4.52310673207240    1.72734170671532    7.43752892850678
H         3.53355171646409    1.45269939310795    7.09752595290446
C         7.16649568431318    3.02808021958205   16.09493302632777
H         6.89432597125022    2.34082046025671   16.89356412189623
H         6.34683226142028    3.08794207942794   15.38346862369567
H         7.31532234323982    4.01482998077237   16.53705475207462
C         5.45270006098376   -0.03480023754677    5.91531040992795
H         6.41491948206337   -0.43800047236085    5.60931816019258
H         4.93623839004308    0.34196448858122    5.03294667316862
H         4.85346195584364   -0.84489249909961    6.33007286529027
C         5.95429048628157    5.43491294243398    9.15152900399257
H         5.49373703392369    6.17127602415654    9.82127732749752
H         5.34828479498231    5.37870916075258    8.23795494802085
C        10.19108576337629    2.70521269021174   12.04116528659211
H        11.26585887430895    2.84123946663640   11.92874760329686
H         9.67732776605144    3.60546142590531   11.70824953305915
H         9.88548007430820    1.88413592061375   11.39371090336810
C         4.34595165771773    0.88568677476954   11.35020700853700
H         3.59595860984673    0.16801507193420   11.68063150705091
H         4.52539593886757    0.73414228518638   10.28810685004144
H         3.94775944167686    1.88734328218982   11.48744697652548
C        10.48971329115060    1.31278540657394   15.54215340542778

