45
CSD_code = GEQMAR | q = 0 | S = 0 | Stoichiometry = C17H24BrIrN2 | MND = 8
Ir        1.23534828887319    2.43098448728959    7.12297033227091
Br       -1.11913005068478    3.67880528629245    7.12768635871311
C         0.20053095995025    0.70596160174661    6.99612883490677
C        -1.09651642008982   -1.10317598273043    7.03100740828049
H        -1.91256844192009   -1.71867894198996    7.34786826640888
C        -0.14435549252693   -1.31036433695935    6.09245951208268
H         0.02980939391031   -2.14278542571767    5.44235695943228
C         1.80987029734329    0.05511098792374    5.28074532543209
H         1.61063052682259   -0.26883521418606    4.25106686288109
H         2.64763229528991   -0.53823526538330    5.66728516903629
C         2.13518315848695    1.53224466442043    5.33350454771458
H         3.18505785867494    1.75756258211271    5.19727664327852
C         1.15874725137053    2.46993018296016    4.96168531469526
H         0.21329565946291    2.11738520035327    4.56023351045730
H         1.46720755739194    3.42425954463968    4.55071693459484
C        -1.72563800091799    0.67227984954556    8.61471273944712
H        -1.37502967314166    1.67801644450437    8.85220952153248
H        -1.65717917885723    0.03345047591927    9.50152591814376
C        -3.14252795365531    0.76108803888633    8.13129070888857
H        -3.28989772785052    1.44400992905657    7.30760542095748
C        -4.14516129839581    0.08708437795383    8.65994901322428
H        -4.00670673656334   -0.58491646406974    9.49288945498685
H        -5.15237097156405    0.19021992939094    8.29592022327532
C         2.50177352651537    1.54589334564333    8.62492425495764
H         2.37902743823249    0.46497757913780    8.68974196483647
C         1.52126667056238    2.32830384261104    9.26608855053188
H         0.73421428111138    1.77126302437801    9.77283614808864
C         1.83209332181016    3.65801941380166    9.93369241596850
H         2.85083353896396    3.62960723389979   10.32602272066817
H         1.16460233752426    3.78693385546188   10.78802584041286
C         1.64458238740307    4.85765432148568    8.98908213351184
H         0.61075988306162    5.20011348448006    9.05820545031319
H         2.28533935150003    5.69034893707346    9.30147156393162
C         1.92897011084040    4.54597390668852    7.54032333707713
H         1.40551663584649    5.19627589730358    6.84423711555936
C         3.02138276119418    3.85992939140634    7.07724294706946
H         3.29531550411330    4.00008042230879    6.03620102578135
C         4.14859413340094    3.37621765791437    7.96015290710893
H         4.24787029257073    4.05846948575856    8.80596983165837
H         5.08292634788509    3.42910571519043    7.39606486709553
C         3.95066224662806    1.93772467269650    8.45816327563788
H         4.40227444888360    1.24786756204142    7.74055843577053
H         4.47577636444578    1.79379016497220    9.41033901374823
N         0.63980932003146   -0.19274960773884    6.08578554742046
N        -0.86972220422263    0.13139774186384    7.57977567235312

