87
CSD_code = GEQNUN | q = 0 | S = 0 | Stoichiometry = C42H36N4P2RuS2 | MND = 6
Ru        5.72090717310683    6.85732123560115   -0.05834475487701
P         7.86035830703446    5.92502200112916   -0.24822184227385
P         3.49063969581312    7.42910454260927    0.29829467718390
S         5.93176879770626    6.09392952631717    4.43536235826161
S         5.15567864862603    3.07890730932227   -2.81691213213306
N         6.33258437585370    8.28212478693394    1.09160687138460
N         5.86848423050983    7.90869148623378   -1.62353228758508
N         5.08330768514247    5.30927190414453   -1.19636190397077
N         5.55178037631231    5.83674433940225    1.71229058706400
C         5.72260955934433    5.97737899683183    2.86883565589104
C         8.82082778927194    6.40179870323962   -1.71958607385383
C         8.90806175593366    6.33644615617380    1.17570396751357
C         3.32650228651605    8.62358695076493    1.65400444708948
C         5.15010836912461    4.34602560215982   -1.86933716274036
C         5.90892701128508    8.52444430078773   -2.59869401950077
C         2.29855456505145    6.13285965024758    0.75335159684462
C         2.59651050102346    8.17751894407955   -1.10258739504348
C         2.76266324230033    7.53260966106390   -2.32658194936130
H         3.41045845623212    6.66481515081404   -2.37949898957027
C         8.15668570987289    6.24356840567884   -2.93585557701532
H         7.14593216272054    5.85271005553064   -2.93664174323827
C         9.14407468367003    5.42173872087504    2.19580791545174
H         8.77944747927368    4.40843888309576    2.10400862998038
C         7.95120461927944    4.10989143564965   -0.34497020839266
C         7.03626597919097    3.35107650360260    0.38098211488453
H         6.29459254811353    3.85271438199782    0.98889673175755
C         0.97482833654139    6.49537675531911    0.99804531466309
H         0.67872438301429    7.53336126785088    0.92257903567105
C        10.06394524483601    8.02762304167520    2.43729224638987
H        10.42836357484842    9.04179887723224    2.53045863300540
C        10.30094899027200    7.11033755480134    3.44932426424920
H        10.84149539771757    7.41132631338897    4.33466066350724
C         6.60733983294540    8.80632192438546    2.08153122607931
C         2.67975414719697    4.80112875370634    0.84372018929424
H         3.70543054607882    4.52578802813325    0.64465195409156
C         2.98630877980866    8.21915865736762    2.94026389605602
H         2.72152556077665    7.18792320709066    3.12649394157406
C         9.35730491489030    7.64937441470563    1.31173566204418
H         9.14490006081174    8.36778369397436    0.52846955270563
C        10.13188712206216    6.86225324954061   -1.70873625470417
H        10.66745041156205    6.95769380204079   -0.77484924283624
C         2.10381717868883    7.99221609578001   -3.45104004550368
H         2.23244189017465    7.48489957662071   -4.39633096002133
C         9.83667955351900    5.81172934606146    3.32829678683877
H        10.00851952983399    5.10035589727003    4.12213007409057
C         0.43208344868821    4.20069155748136    1.43358059457372
H        -0.29609646330559    3.44861927042152    1.70004102295976
C         3.71875029266110    9.94230699274441    1.42845607239572
H         4.03096714442418   10.23919742867989    0.43375110036156
C         7.06846509190068    1.97111499733451    0.31262960858953
H         6.34802936173617    1.38954302201461    0.86884183319732
C         2.99672551284005    9.13444104476016    3.97797734747123
H         2.73516252952319    8.81541759820660    4.97573744504393
C         0.04812969528632    5.53026051492998    1.33976807360996
H        -0.97683144827880    5.81277661271399    1.53254488565687
C         8.90452004335587    3.46862189414466   -1.13029695658249
H         9.62011671197883    4.04546000672063   -1.69919556522630
C         8.79098357460589    6.55853130194339   -4.12194550897231
H         8.27576236466691    6.42192934821812   -5.06200722624377
C         8.01048183714409    1.33714757904686   -0.48041911043331
H         8.02426871484676    0.25933535138920   -0.54773493709183
C        10.09231765784600    7.03744166446726   -4.10525700300626
H        10.58944304608324    7.28692996892012   -5.03131342834375
C         1.27348875555100    9.09887947483121   -3.36277986185294
H         0.75854795521244    9.46135207363679   -4.24050200764991
C         3.71380274287807   10.85591006052041    2.46509316791415
H         4.00159370358087   11.88207573433855    2.28201997325384
C        10.75987860166203    7.18243534200009   -2.90089230976175
H        11.77978469338467    7.53900618220123   -2.88861839956070
C         8.92875354028080    2.08723997206646   -1.19528241908299
H         9.66338278145225    1.59540536620987   -1.81630577753152
C         6.93577256848469    9.45309512858319    3.31524498002654
H         7.94854962275041    9.85243944933424    3.28029391520293
H         6.87037072317829    8.70755647725484    4.11063793829238
H         6.22434012432277   10.25397176726708    3.51807910284825
C         1.75247945778252    9.27819208728407   -1.01515135407476
H         1.60512378996707    9.78015397297634   -0.06886901973328
C         1.74449055162001    3.83863156647285    1.18442463216773
H         2.04291959303764    2.80313843371920    1.25346741149675
C         1.09787747513548    9.73603437891953   -2.14588373403865
H         0.44307660928120   10.59266519406250   -2.07466247187956
C         3.34875803102870   10.45300284021187    3.74147471312114
H         3.34922159571141   11.16648722592002    4.55295053357763
C         5.95770182132284    9.27725571977198   -3.82047552574192
H         5.01179243702946    9.16843468937339   -4.35211645010181
H         6.76954834669718    8.90582481170758   -4.44670440291364
H         6.12636389873453   10.33235580584315   -3.60441733288746

