57
CSD_code = GEQVUT | q = 0 | S = 0 | Stoichiometry = C22H30N3PRu | MND = 9
Ru        6.79499176089849   -0.50773830399459    6.91808394515327
P         5.89515346227278    0.14630165649467    8.87547753175133
N         5.37037441609836   -1.07873282118733    9.95389437035337
N         4.43894290685380    1.03418195797263    8.83573171480419
N         6.79988874130465    1.07546321685611    9.99170066972756
C         7.38466353631443   -2.32266499142092    5.83878264567607
C         7.35463908171673   -2.60845693171750    7.24889019664660
C         8.36082846014408   -1.81354414657743    7.88072945243090
C         8.98992229528353   -1.01992464588731    6.87879660959375
C         8.38738414514399   -1.32839549358856    5.61280884746557
C         6.66474143165924   -3.79046806497162    7.86245581213806
C         6.71294314303715   -3.13088138413371    4.76974618855847
C         8.88492710728898   -2.00470587710966    9.27322362998768
C        10.27132836112192   -0.25966307375707    7.04908514126111
C         8.93894594827708   -0.92334151758477    4.27828536135074
C         4.33412545759552   -1.92024812680407    9.63130822063407
C         4.27454953538355   -2.91946162136862   10.55431275933367
C         5.32906728820496   -2.70119418413138   11.47360281933779
C         5.98978902695069   -1.57889221089546   11.07270598008400
C         3.42920192459846    1.13302483869776    9.76694560458814
C         2.52592031589547    2.05307634861115    9.33281158066001
C         2.99253655564953    2.55030488409265    8.09181179290301
C         4.16036337540431    1.91081420511445    7.81360534889320
C         8.07205592961423    1.54407187838861    9.77437036363470
C         8.48118094213357    2.24253432404254   10.86689484319480
C         7.41707339788649    2.21425541267264   11.80108176115434
C         6.40402593607108    1.50096440912925   11.23972589838846
H         6.11477316159328    0.25957079321781    5.77754164462400
H         5.35559861170276   -1.02982731185521    6.77759179029747
H         7.35791141963188    0.92047559115628    6.89803202935638
H         6.52251417731197   -3.66529215351116    8.93397832478476
H         7.27160340511344   -4.68518119294311    7.70073753272002
H         5.68790570538778   -3.95723149052650    7.41221607319152
H         6.48749529803094   -2.51894722583483    3.89840942033859
H         7.37654876918804   -3.94189974401266    4.45898043227688
H         5.78361009842055   -3.56729586762830    5.12901673857177
H         9.15276996437470   -1.05763472540135    9.74227102244018
H         9.78322924474360   -2.62617141894795    9.23328722782216
H         8.15479385864983   -2.50614579714008    9.90580460928148
H        10.29665709378179    0.62907192548494    6.42085145102918
H        11.10524103012859   -0.90343679117206    6.75785343535937
H        10.42457527107258    0.04235503237843    8.08338449013756
H         9.33821702418041    0.08853821833226    4.30868383331762
H         9.74718529175970   -1.60355678917296    3.99727031848447
H         8.17144781583931   -0.96441337787543    3.50839188918878
H         3.72346454980574   -1.72074845592333    8.77038254632207
H         3.56144846472285   -3.71970488225359   10.58537467345874
H         5.56251587509000   -3.30471332461518   12.32914887239116
H         6.83109195426242   -1.08110732913574   11.51540502628231
H         3.41068727629543    0.52022827770207   10.64757557961243
H         1.62412243974527    2.34289749449648    9.83603374803858
H         2.50951481961971    3.29046549575222    7.48521562200346
H         4.82982992403836    1.97395596465912    6.97306511055355
H         8.56248163555627    1.36040658963643    8.83782897537664
H         9.42826823719392    2.72825453085868   10.99786270305414
H         7.40983638494302    2.67467156897747   12.76968898451061
H         5.43289671487312    1.26493665880392   11.62754680520095

