103
CSD_code = GEQWUV | q = 0 | S = 0 | Stoichiometry = C47H41BrN3NiO7P3 | MND = 5
Ni        4.02730846491735    1.22046566147393    7.08901407034705
Br        3.24965163524080    3.48743897798904    6.99009117129635
P         5.41863320584940    1.55531404223177    8.65916771831403
P         2.69184375482061    0.33791955476227    5.72560598094169
P         5.53277428321264    1.41661833614599    5.63231744614842
O         6.76781569108814    0.75262020525729    9.06067370622552
O         6.00231124155855    2.99764259637867    9.04871528698196
O         2.88106354711084   -1.02099063604784    4.86868948784752
O         1.91998884239682    1.13853574982267    4.56617930072412
O         6.64733907130574    2.49068247306356    6.18736251590790
O         5.14087289326746    2.28776457455097    4.29698131473247
O         6.15333325826909    0.12929293077908    5.30221891374412
N         4.38978005359407    1.25796149106922    9.99599769785357
H         4.66048707149558    1.45787268533618   10.94840370130643
N         1.44997550696201   -0.14465107887345    6.80166990540219
H         0.56652195498620   -0.52267518301313    6.49041681651025
N         2.81903316962866    0.54674968522093    8.49549758869851
C         3.14622570061199    0.73480548183223    9.77646656568451
C         2.25648309765601    0.39875400095837   10.79600368277214
H         2.52470164116073    0.56323720022535   11.82620671154274
C         1.03071833561974   -0.13760695997238   10.44381503579783
H         0.32059551555593   -0.40004442471323   11.21277392409201
C         0.70861338366916   -0.34484214187663    9.11334136922922
H        -0.23928897926369   -0.76531134200421    8.82176831418496
C         1.64450181323054    0.01666589413901    8.14679496023946
C         7.88910841484374    1.58149288214473    9.30332154811962
H         8.15756974638374    1.47847529510637   10.36469735181800
C         9.07055130809900    1.23899890752477    8.43782870977515
C         8.92797762317441    0.50822477890185    7.26817697253485
H         7.95739548418806    0.14220014905368    6.97290569839966
C        10.03259328675852    0.26142944962506    6.46946037441550
H         9.90992868405903   -0.30651543622841    5.55956528270861
C        11.27807549073544    0.74575938452518    6.82906338820658
H        12.13687845657326    0.55450202588069    6.20230835143902
C        11.42147146184565    1.47631422226665    7.99765407580045
H        12.39085372272486    1.85602024644654    8.28526896903212
C        10.32354779314691    1.71999331788874    8.80177579391969
H        10.43186270807117    2.29073266748165    9.71337917436112
C         7.41889607880984    3.04085686160667    9.01784644601201
H         7.74478951133625    3.32009363663905    8.00989556567471
C         7.95097920945105    4.02814317083041   10.01340245844443
C         8.96007393875777    4.90568336911315    9.63776480554787
H         9.32812430285850    4.89066596990172    8.62201528292502
C         9.48770162028575    5.79182138815734   10.56022213445239
H        10.27309246657875    6.46990814209538   10.26202313901032
C         9.00601837878416    5.81501326972542   11.85831384486721
H         9.41571388576149    6.51016394866628   12.57573476758954
C         7.99205102669597    4.94986624247192   12.23317793491417
H         7.60908937311009    4.97012794393151   13.24271372772918
C         7.46993335744098    4.05635039080763   11.31558795514489
H         6.67383090852123    3.38501324535395   11.60240385189405
C         2.80608456592726   -0.74841773451841    3.47855223914113
H         3.77156541253586   -0.35183771150200    3.13826611287300
C         2.41480117277736   -1.96078643670235    2.68944329125515
C         1.60119454733843   -2.94090603361252    3.24093430576614
H         1.29487297157984   -2.85580938518187    4.27276071362690
C         1.20580860039197   -4.02750698933632    2.48093767244969
H         0.57926904733691   -4.79002400873545    2.91957203227228
C         1.60958735001394   -4.13544213326380    1.16132295073584
H         1.29780407976251   -4.98178702042586    0.56779108009242
C         2.41835822838442   -3.15763374637600    0.60610660270556
H         2.73834898732429   -3.23972980470490   -0.42170608412805
C         2.82403360111383   -2.07579717546692    1.36650623473148
H         3.45694289059078   -1.31330845194686    0.93769057317946
C         1.74526513074635    0.37916790434976    3.37515868245550
H         0.74431473293894   -0.07572812217091    3.39464047847588
C         1.90854832781122    1.20543872950281    2.13364629970470
C         1.23553519689975    0.82993181684622    0.97651357201946
H         0.57911882325519   -0.02876304282406    0.99095024826528
C         1.41181271462371    1.55035963844994   -0.19078849794670
H         0.88927829298555    1.25238569068089   -1.08771813879143
C         2.25069381156804    2.65286280158356   -0.20672698766281
H         2.38215387678258    3.21678830268882   -1.11831330406977
C         2.91544714699843    3.03177524749685    0.94682213183752
H         3.56681073018000    3.89232747405548    0.94452081575753
C         2.74983620298443    2.30786860234356    2.11491602067467
H         3.26612679232823    2.59880229326747    3.01424590781671
C         6.54320382133880    3.73341685858750    5.51535197859175
H         5.76487202092309    4.34428437868942    5.99315641173065
C         7.85402724181706    4.46048274222578    5.51540071774445
C         7.86784699712193    5.84911794712036    5.46262535519715
H         6.93291005442981    6.38721389984759    5.42122354361290
C         9.07204559515192    6.52947882082416    5.46640793149830
H         9.07741858719761    7.60834444936848    5.42429621266225
C        10.26778801105061    5.83245083795028    5.53532816166694
H        11.20611799508548    6.36719500175503    5.55041434993918
C        10.25681203606284    4.44902646899900    5.58585746038657
H        11.18343324774272    3.89683320733722    5.64189906024063
C         9.05450584828583    3.76401196185740    5.56612728624113
H         9.04073458949579    2.68530611163107    5.60727442562361
C         6.06631143247688    3.34809537045388    4.09422063002735
H         6.93150244598366    2.94393248428025    3.54709938869275
C         5.46295506382639    4.49479602327334    3.33843599783206
C         4.25559228223794    5.05814786157147    3.73393027473361
H         3.72831342576341    4.67658124490262    4.59461369253095
C         3.72585726171299    6.12066022133647    3.02202245677931
H         2.78618248144819    6.54745528812954    3.33592090721478
C         4.39554097124726    6.63408770037477    1.92425325551418
H         3.97976079258686    7.46409972282005    1.37172142324113
C         5.60412551496862    6.08045599076990    1.53494071467505
H         6.13410105506759    6.47727506051822    0.68117552863271
C         6.13386870073151    5.01226002737489    2.23676275745771
H         7.07586689823428    4.57910436863500    1.93121433328531

