41
CSD_code = GEQXUW | q = 0 | S = 0 | Stoichiometry = C18H17Cl2HgN3 | MND = 5
C         9.50130675854020    8.92878826047441    6.67342219593830
H         9.15319377470833    9.91977278256698    6.40722698899380
C         9.64090454922492    8.55085829567051    7.99964898549051
H         9.39521854781998    9.23942612346585    8.79213903669615
C        10.07539896835844    7.26460181327758    8.27306743186514
H        10.16342693467627    6.91695809681900    9.29130834495101
C        10.39403657160274    6.42722873014330    7.21784359272816
H        10.71507948033807    5.41494862726705    7.40333432821489
C        10.24630627331764    6.89591420503556    5.91470359165600
C        10.60142339631957    6.06947606316439    4.74345427938270
C        11.59371953312766    5.09659052965140    4.82809417986002
H        12.11840490566341    4.92548093533877    5.75376805198559
C        11.91625939837602    4.37030014504608    3.69300964471675
H        12.67636632021288    3.60414487778759    3.73264537872096
C        11.26075965002402    4.65073497637166    2.51155275033132
H        11.48329807104995    4.10609981794200    1.60719065499142
C        10.28139366824178    5.65100417882253    2.49299613389023
C         9.66072357502204    6.03447215806574    1.21079520287611
C        10.54508248070185    6.30471877186177    0.16868925244963
H        11.60571941611154    6.19665987414334    0.34564444246995
C        10.09897632658007    6.75489027507999   -1.05782724750659
H        10.80309115329310    6.97461442891099   -1.84505963710434
C         8.74149395014767    6.93349226800736   -1.25265873897118
H         8.37192863375755    7.29166904750191   -2.20177118129074
C         7.84632004217227    6.64760250657514   -0.23989472067453
H         6.79668542631743    6.79104875178822   -0.43260955326996
C         8.27484106207082    6.19254567575095    1.00833691464670
C         7.42237553813706    4.55026469999406    2.57987643380331
H         6.86470569427879    3.86198421920200    1.93033676322861
H         6.97754667031454    4.53712745152020    3.57489358915142
H         8.44797366796285    4.19868954077151    2.65426418626841
C         5.97548555897932    6.28181858769598    1.82511955874541
H         5.49740812436338    5.65038374443758    1.06421532651947
H         5.90991308967486    7.32892412981774    1.52960932834207
H         5.43697901707024    6.15386052451177    2.76470411854463
Cl        6.81323433400312    6.83536075894272    5.37238991185114
Cl        7.98596411350159    9.54904596315984    2.27192518111035
Hg        8.14599702627227    7.88814293268628    3.80822204890748
N         9.78345930180546    8.12417667411496    5.65950569378117
N         9.96630369170312    6.32675455733040    3.59697261771080
N         7.36749530416597    5.91062399928158    2.05351493798629

