37
CSD_code = GEQXEG | q = 0 | S = 0 | Stoichiometry = C17H14Cl2N2OZn | MND = 4
C        -0.06927118328011   -1.25187479987336    3.84719973334583
C        -0.60786703937822   -2.51869283769995    4.00959996039603
C        -1.53530939321920   -2.71578534765022    5.02067615164451
C        -1.89839496266361   -1.64253851255139    5.81643285012833
C        -1.31823483922956   -0.39877170208404    5.57674915898885
C        -1.64744727741216    0.79926472775547    6.36668263883643
C        -2.85802645386486    0.96222019327477    7.03047508778057
C        -3.09243014110790    2.15712992421926    7.69750799627732
C        -2.12785815425914    3.14491790398590    7.68338854656696
C        -0.93374535506578    2.90942776606323    6.99817795324092
C         0.14022072440300    3.89799393021409    6.88047694737173
C         1.46084785401142    3.51532680599618    7.10440658301602
C         2.49893776756401    4.40205676371817    6.88677551798525
C         2.21867508133688    5.67175212366321    6.41315518875264
C         0.91354955340920    6.06851447444034    6.18215938522848
C        -0.14313374272385    5.19676921683064    6.42124251830451
C        -1.75440228671211    6.61035963954320    5.39800098728610
Cl        2.69739700884732    0.77191340646846    5.18161087140834
Cl        0.07736568226333    3.26863734972277    3.48415911165419
H         0.66964099148821   -1.04640412380150    3.08530436865475
H        -0.29839902682973   -3.32794857785278    3.36846279661719
H        -1.96586190353296   -3.69126572527827    5.19219026554002
H        -2.60096868163774   -1.77245924275841    6.62342682059702
H        -3.61452684508356    0.19507665838604    6.99907354747239
H        -4.02796747877540    2.31275215363112    8.21387795521869
H        -2.28000537408442    4.08845509571617    8.17983433400275
H         1.66430762291716    2.52637521695000    7.49060184697320
H         3.51648065309629    4.09397237700449    7.06677913732473
H         3.02260533695174    6.36464738717153    6.21489491131854
H         0.72421668615113    7.05989602999155    5.80276094401922
H        -1.51360333393820    7.55782725853797    5.89136041792333
H        -2.82829996852922    6.55963298756395    5.22514899222010
H        -1.22875204806075    6.54321310780622    4.44228682341269
N        -0.72022681880212    1.75583537597455    6.37197401924335
N        -0.41735829161919   -0.22820611986513    4.60710263757454
O        -1.45050435153812    5.50364250705104    6.21898335023293
Zn        0.70204998890062    1.62443660774128    4.81345964343956

