41
CSD_code = GEQXOQ | q = 0 | S = 0 | Stoichiometry = C18H17Cl2N3Zn | MND = 5
Zn        2.03038725972697    2.43315267032121    0.48474676359919
N         2.52123708837921    0.63431629228220    1.61471559918513
N         4.00652726626962    2.75842486647340    1.12941434178085
N         2.50403227960349    4.32346933612782   -0.85499532413836
Cl        2.12960884077138    1.10405360722318   -1.36198602642269
Cl        0.27899891084653    3.28478487658904    1.50293028153949
C         1.69382144009940   -0.38498421516013    1.75362548094298
C         2.12172105620082   -1.70393242389952    1.72643916786702
C         3.46957144387820   -1.95215462479093    1.52766950055241
C         4.33953968405600   -0.88218502243998    1.39744268231845
C         3.82752128228577    0.41085159661318    1.45553724113115
C         4.66169225875023    1.61892370755224    1.35128260109560
C         6.04334828837839    1.60329006251430    1.52151324621597
C         6.73639168761379    2.80155271871695    1.45013481141407
C         6.03785506927055    3.97591543626680    1.25030364909246
C         4.64792703377115    3.92177562448317    1.09676329292864
C         3.84986332261616    5.15437562882365    1.00364157550211
C         4.14383443023695    6.15398912562666    1.92865282266973
C         3.38535486701909    7.30515117227898    2.00677393233932
C         2.31160029823828    7.46142664355137    1.14954344147979
C         2.01886704078535    6.49028755728515    0.20986357219866
C         2.77799173079199    5.32661005889887    0.10792807591664
C         3.60814070269818    4.10192351819493   -1.78873278685783
C         1.27507877256687    4.50164442024902   -1.62310734867709
H         0.65106776209832   -0.12957759780759    1.88134957939830
H         1.41416022313927   -2.50976934981456    1.83707208320105
H         3.84129774789990   -2.96437891848260    1.46845349096970
H         5.38894755418959   -1.05629446682504    1.22271659572381
H         6.56805242581001    0.68299513307838    1.71593079149783
H         7.81040778268689    2.81587609577574    1.56255907039956
H         6.54744459722648    4.92494452212716    1.19625641677726
H         4.95633386592139    6.00009162285198    2.62397804365079
H         3.62107401090876    8.06172464693849    2.73888744233152
H         1.69699367415473    8.34715765876978    1.20509576955580
H         1.17704260441947    6.64808188574767   -0.44211209939418
H         1.33207278393734    5.36704826348817   -2.29428732275963
H         0.42741054625977    4.60449594005168   -0.94883388564890
H         1.12661637774741    3.60559163397600   -2.22416316339248
H         3.44138265264038    3.15958574260532   -2.30827409126124
H         4.56079904984206    4.04536143301059   -1.26760021990673
H         3.65978428626314    4.91550312072653   -2.52282909481340

