71
CSD_code = GEQYIN | q = 0 | S = 0 | Stoichiometry = C32H32N2O4Pd | MND = 4
Pd        6.25477593356590    6.77698581551998   15.15316485332567
O         4.60219376223344    5.62584797259370   15.32220408909996
C         4.41336992705218    4.72320873638063   16.20811513591398
C         3.37484189130065    3.75508460133127   15.95816676221475
C         3.10006229499136    2.76081480609008   16.85977985222471
H         2.33157661770558    2.03033798410959   16.65965148428562
C         3.81137887214849    2.67360948973446   18.06668655000552
H         3.57327411425959    1.88281781610993   18.76123574632834
C         4.78298781818595    3.58538767164739   18.35374322906940
H         5.32735721550719    3.52897367621729   19.28576552344264
C         5.11316192150007    4.61539277046173   17.44449270547598
C         6.10183936609879    5.56248883880678   17.82940498542052
H         6.41896080688134    5.51072749367791   18.87553986804375
N         6.61713571775868    6.48473239030353   17.08856161964788
C         7.49186826720566    7.43213939913877   17.66192671077039
C         7.01569281722327    8.73300786576474   17.86436127159936
C         7.86012810865824    9.66351224700471   18.44766250126764
H         7.50626395789555   10.67100729661147   18.61361710510516
C         9.14958350847119    9.31655179766926   18.81003814104403
H         9.79338344251084   10.05056848931686   19.27285967787912
C         9.62361642661094    8.04232996453387   18.55711723946206
H        10.64374229691785    7.78606047832143   18.80556258135681
C         8.80729390196649    7.08479746209805   17.97504410175370
O         2.73785507503334    3.94318619221161   14.76509387183581
C         1.71696866041126    3.05020841839950   14.41138275551588
H         1.35455061659711    3.38989693165504   13.44270119656936
H         2.09183282127249    2.02456753505569   14.31826591010236
H         0.89397247739439    3.06835597482635   15.13512576564060
C         5.62273166552180    9.08813293029334   17.42954876221195
H         5.44022693352337   10.15239234067066   17.55802344777350
H         5.48132281229568    8.82766399356203   16.35926541084186
H         4.88209164786066    8.53217430980031   18.00867288963997
C         9.31686621664949    5.71899501327376   17.62351788988687
H        10.40321138864883    5.69859228110185   17.65297329788864
H         8.93930703924781    4.96213240818850   18.31180819488049
H         8.98309551485887    5.45746865297664   16.61556099903067
O         7.90702343135917    7.92852466118699   14.98449033407022
C         8.09965344672081    8.82754847366634   14.09590233258177
C         9.14151888644757    9.79264903051143   14.34367605081687
C         9.42165023194503   10.78214750133504   13.43857819551903
H        10.19324038779628   11.50990142473024   13.63668432671528
C         8.71199585292178   10.86780724586531   12.23058518762128
H         8.95464435595934   11.65465235810744   11.53311871906446
C         7.73624836236803    9.95957203324332   11.94629698574497
H         7.19281985135822   10.01501740464575   11.01368916893763
C         7.40094229248859    8.93413276313620   12.85884184388513
C         6.40864686271298    7.98994785797359   12.47615884860090
H         6.09040815326076    8.04170436513567   11.43030296336266
N         5.89142252375606    7.06972093912555   13.21828930535495
C         5.01590134224529    6.12265933451674   12.64540946973090
C         5.49325065329456    4.82263397219443   12.44012557966936
C         4.64950513590416    3.89244611063925   11.85542022057184
H         5.00438816615560    2.88570942868801   11.68713610162830
C         3.35951879703108    4.23884061508514   11.49436757599342
H         2.71627881856662    3.50515965057685   11.03017887689992
C         2.88408314814208    5.51169947579477   11.75110769838803
H         1.86351053639238    5.76744413958324   11.50403573141743
C         3.69970066290061    6.46890668304385   12.33487909636857
O         9.77597346251737    9.60680551140307   15.53842056586031
C        10.79782437118145   10.49897731845077   15.89145557989958
H        11.15580666051775   10.16316802207152   16.86317236991262
H        11.62342802780638   10.47511135608267   15.17088580234374
H        10.42526351621984   11.52598330602263   15.97809852623334
C         6.88677959997469    4.46835571161908   12.87379762168542
H         7.07103312276265    3.40481373323303   12.74202658158313
H         7.62663222683481    5.02731444022128   12.29653592300579
H         7.02768650283075    4.72577372696408   13.94488770983395
C         3.18879383983722    7.83370491538430   12.68866857209998
H         3.53718022276013    8.10150098178036   13.69016890571530
H         3.55139579327245    8.58984173454694   11.99055267376111
H         2.10162889778711    7.84767172797285   12.67651242856906

