95
CSD_code = GEQYOT | q = 0 | S = 0 | Stoichiometry = C40H48N2O4Pd | MND = 4
Pd        0.00001253366857    0.00006513274989    0.00002052130823
O         1.09602992246063    1.47414216908760   -0.86692184015816
C         1.53523433740284    2.55463975823550   -0.35053488925510
C         2.35431940474751    3.40556022538533   -1.17916122918171
C         2.87284031981768    4.57817255311280   -0.69889152022011
H         3.48878036027777    5.20656296849186   -1.32345375751817
C         2.61211289340350    4.98953459814085    0.61812950686981
H         3.03320334439519    5.91776941081084    0.97208262621558
C         1.83166483222207    4.22247688283389    1.42950445498204
H         1.62085297684777    4.53625783104768    2.44206551783265
C         1.27819543679004    3.00354945395860    0.97536386138943
C         0.45264441081441    2.27018349823646    1.86645512722941
H         0.29068074497364    2.73963321409324    2.84244054137648
N        -0.12700447447475    1.13686521840412    1.64933240326686
C        -0.95582554348280    0.61183754425399    2.66812060382779
C        -2.26897497086192    1.08519002122422    2.79944138739618
C        -3.04753192432071    0.56709907748305    3.82279648498197
H        -4.06566470139118    0.89886070769435    3.94873791852223
C        -2.53435498923222   -0.37097468811351    4.69981259815761
H        -3.15098452903051   -0.73981742228193    5.50764867681197
C        -1.24656310058376   -0.84434806086659    4.54249949951852
H        -0.86748081365969   -1.58949843688828    5.22417078131378
C        -0.44222418510186   -0.37512188460993    3.51524750409216
O         2.53490273558369    2.91679393911775   -2.44229581788101
C         3.33229620528894    3.65224579341715   -3.33023428796413
H         3.34584965707156    3.07644293680125   -4.25375163188664
H         2.91060741746408    4.64500351904004   -3.52551921602875
H         4.35640263142317    3.76398730533019   -2.95690159864431
C        -2.80558122206648    2.09641366022786    1.80551858574585
H        -2.01343711943913    2.82460494116776    1.59107103635558
C        -4.01488793838152    2.87596632508337    2.32071773887405
H        -3.81265314863628    3.30241303460033    3.30079919109040
H        -4.24318966134660    3.68934871771228    1.63479723644793
H        -4.89353273379597    2.23896231854405    2.38727233225811
C        -3.16060011616747    1.38548747261267    0.49200278740626
H        -2.26158571812402    0.93227421953581    0.03808680081566
H        -3.88557764759082    0.59562758006519    0.67891869998516
H        -3.58543521323685    2.09573914347803   -0.21533737195504
C         0.96189840757387   -0.89674412494732    3.30358140306812
H         1.25006086259860   -0.69312630043959    2.25452417357973
C         1.94417872258775   -0.16491673665975    4.22218721162955
H         1.95255844305345    0.90175465885696    4.00660614637653
H         1.66197853977238   -0.30337606564115    5.26437244108207
H         2.95178536594020   -0.55073828484149    4.08185194269917
C         1.04396543448798   -2.40915657811923    3.50789993199681
H         0.24869109122379   -2.89525121775069    2.94905529263832
H         2.00203047910681   -2.78101505550852    3.14987956016980
H         0.95122466470255   -2.67541066104171    4.55823787066002
O        -1.09602998237137   -1.47412357054292    0.86699235135556
C        -1.53504676632288   -2.55472469158903    0.35069087852058
C        -2.35427809108984   -3.40553408295777    1.17928379204225
C        -2.87268086044094   -4.57819814017704    0.69905390524906
H        -3.48848579414930   -5.20668334869074    1.32365687469894
C        -2.61161569196507   -4.98977089549371   -0.61776807744388
H        -3.03267173591057   -5.91815447578369   -0.97133289051315
C        -1.83137448154525   -4.22265310635755   -1.42930730550647
H        -1.62071101050230   -4.53638441097971   -2.44193220041144
C        -1.27824424369193   -3.00348730056673   -0.97539071727548
C        -0.45298221578725   -2.26988756027427   -1.86656471345017
H        -0.29046156623438   -2.73963807745595   -2.84229826670979
N         0.12669494836278   -1.13657702947552   -1.64943363061174
C         0.95566162023819   -0.61167638205614   -2.66817333836295
C         2.26879158701151   -1.08515964608847   -2.79951400408156
C         3.04740621983171   -0.56711741110660   -3.82285651860997
H         4.06552028423092   -0.89894932209880   -3.94879341294625
C         2.53431173945865    0.37101581785566   -4.69986590745880
H         3.15096364699131    0.73982382100237   -5.50770321364148
C         1.24654990063644    0.84446117872535   -4.54255320184293
H         0.86747431506853    1.58957509609755   -5.22426812423144
C         0.44217738111262    0.37530768372891   -3.51529219888580
O        -2.53486771089656   -2.91700988738418    2.44254232776953
C        -3.33221181788944   -3.65276914016214    3.33029022765327
H        -3.34602335219457   -3.07710238712654    4.25388941763434
H        -2.91035278077725   -4.64547747262885    3.52551602975240
H        -4.35625319789737   -3.76469593049872    2.95680884491508
C         2.80536367794661   -2.09641173818304   -1.80559640271066
H         2.01317657136002   -2.82454167502952   -1.59110634885741
C         4.01457777255707   -2.87609811263059   -2.32079601938422
H         3.81217854748316   -3.30266281982303   -3.30078845119179
H         4.24287937779148   -3.68941629628962   -1.63479454650661
H         4.89328260550018   -2.23919262040900   -2.38755303435476
C         3.16059011118349   -1.38551303207187   -0.49212073451922
H         2.26165493065729   -0.93219905498087   -0.03817666152109
H         3.88563023993735   -0.59572044819056   -0.67908744335739
H         3.58537510198966   -2.09578434177337    0.21523259001441
C        -0.96191692519689    0.89698552827318   -3.30361961017151
H        -1.25013051549731    0.69325259794420   -2.25458994368054
C        -1.94416088400193    0.16532464784692   -4.22239776786585
H        -1.95261443636554   -0.90136698105695   -4.00692662430730
H        -1.66186946318148    0.30387204584478   -5.26455260044672
H        -2.95175751908648    0.55118585845823   -4.08209709984999
C        -1.04386050428969    2.40941717595775   -3.50788129401338
H        -0.24864763532061    2.89545584921137   -2.94890219364184
H        -2.00195552123068    2.78130011463925   -3.14997508499792
H        -0.95096830029229    2.67573366123514   -4.55819489351704

