40
CSD_code = GEQZOS | q = 0 | S = 0 | Stoichiometry = C10H20Cl3O6V | MND = 6
V         5.96654836995997    5.50743958991728    0.73900056991931
Cl        7.89515057427254    5.43956391150324    1.32444941197607
Cl        4.99972576215063    4.02096870034867    1.70083173157176
Cl        5.18735983953351    7.22083281872896    1.51419403618617
O         5.83915783291186    5.60097448674699   -0.75616932011341
O         6.82908847312065    3.06771402767514   -0.74011112250662
O         8.70506953133379    5.48597683509260   -1.59071796415196
O         6.58091542774321    7.52602107292470   -2.48153631848416
O         3.71817388539151    6.67059828344911   -1.78928422184238
O         3.85721398690996    3.83599543173746   -0.97789554218467
C         7.88703320137728    3.24269840656357   -1.66561555264407
H         7.85999982948580    2.43469394178000   -2.40899949041915
H         8.80957056422574    3.16014961391840   -1.07902083496590
C         7.94039809120825    4.59761742126262   -2.38657430404594
H         8.44021594286433    4.46845827973680   -3.36175395346333
H         6.93756329244271    5.00487738164875   -2.53859190840636
C         8.84941048000263    6.78286145201274   -2.11801585946006
H         8.91487865435888    6.74718326535846   -3.21376472277131
H         9.79384056871984    7.15893065484612   -1.71164075132901
C         7.73844402790100    7.75909070262261   -1.71318596597546
H         7.51863114288187    7.61959556444877   -0.64024778537271
H         8.09304832468828    8.79126046843150   -1.87575612842113
C         5.46906885090250    8.29262622931274   -2.07336405033527
H         5.58218329735274    9.33016269905955   -2.42735494128275
H         5.38049899680530    8.29025789289665   -0.97811146437874
C         4.20082817853338    7.67400018200483   -2.65594027383735
H         3.43054845923686    8.44943595568230   -2.79063653835404
H         4.45075810426163    7.24987077981521   -3.63790175298095
C         2.99145970381423    5.65969756329885   -2.43904100568983
H         3.54499243666635    5.29665786331820   -3.31875237074986
H         2.01805885311676    6.04599987574924   -2.78844408286094
C         2.72205428626573    4.50049999905743   -1.47186814874729
H         2.22780311971888    4.89569564722312   -0.58112611255901
H         2.05585874081068    3.78281217797559   -1.98114655111156
C         4.62961127315902    3.14062774145161   -1.93408930274619
H         5.10220802976025    3.83105325757271   -2.64120725639291
H         3.98310915243633    2.43874699623871   -2.48921196545846
C         5.71098559907154    2.33779117320272   -1.19481446041626
H         5.25351558882171    1.91723945490869   -0.29349490886420
H         6.04581952575308    1.51642220050043   -1.84618881633776

