40
CSD_code = GEQZAE | q = 0 | S = 0 | Stoichiometry = C13H23IPtSe2 | MND = 6
C         0.97959844387114   12.15570042363237    5.47252023443679
H         1.13718729687455   11.72244844638800    6.45814622171181
H        -0.08810624002770   12.34767890056218    5.35060264940572
H         1.51059392300016   13.11221078432468    5.42687331396316
C         2.81979807676879    9.92685269934963    5.22983274457855
H         3.48580462042350   10.61548096708784    5.76042586585932
H         3.41436755668883    9.21571438395641    4.65110885467514
H         2.23171188021124    9.38018971421413    5.96641355034770
C         0.12954534863181    9.65830865690731    4.23312560710485
H         0.51564645289730    8.64613586034491    4.10202246739360
H        -0.62863203039558    9.85108714340349    3.46334817408668
H        -0.32485518447712    9.74941762300827    5.21864819134430
C         3.77091061696540   13.45885330501827    1.77336424544790
H         4.79429626906030   13.78833595899127    1.57666835419090
H         3.52072502123348   12.63663633817045    1.10113712264895
C         0.96195996885460   13.25928911010987    0.63836536750578
H         1.68680587243005   12.59858996369558    0.15997111027499
H         0.15224530396613   13.46138988357088   -0.06783663480251
C         0.75393710733167   15.67660133222517    1.12153981278121
H        -0.22906536489620   15.62246000291628    0.67447509471250
C         1.54147733646151   14.52659752441158    1.16079389572825
C         2.82814016025515   14.61317421582947    1.70527835274907
C         3.26559185268271   15.83226332217337    2.21754981702799
H         4.25656064258405   15.88607526786598    2.64772812554911
C         1.20260768080524   16.88016159995410    1.62838829971028
H         0.56792509451071   17.75258989836317    1.58738050259208
C         2.46559224679888   16.95699030199356    2.19082591139452
H         2.82618116496443   17.88837278922159    2.60007206827017
C        -1.14391479426534   13.50466560739025    2.69747748075351
H        -0.60385650489435   14.36130814654616    3.09594051452997
H        -1.74067397810621   13.04320404205800    3.48117938049618
H        -1.79393187479197   13.81203477270366    1.88130704616675
C         5.35117272673881   11.53846823564275    3.30555430428138
H         5.11570422837324   10.82955654522062    2.51284910771238
H         5.55404513362355   11.00923639227512    4.23360466047613
H         6.20671791801117   12.15419551240113    3.03341787281576
Se        0.09995969694047   12.16485018791320    2.05121770426953
Se        3.82682728620566   12.70802355061711    3.60790530418235
I         2.35974297682011    9.77483737869827    1.57361060064339
Pt        1.66065606677807   11.00741321084179    3.90546670309171

