87
CSD_code = GEQZAG | q = 0 | S = 0 | Stoichiometry = C34H34N8O10Zn | MND = 6
C         1.63258654142794   -3.50385986636716    1.28786429470212
H         1.46484465930874   -3.31402719644405    0.23777993298235
C         2.58118608834468   -4.42697415914018    1.68999921394456
H         3.13857654873324   -4.97604086755674    0.94582403343607
C         2.82674425787679   -4.63664947161878    3.03688004398227
H         3.57214496747064   -5.35454615745419    3.34326604036444
C         2.12236843525979   -3.91761303298440    3.98924993014553
H         2.31842583514721   -4.07330389224604    5.03927873485005
C         1.15950087358322   -3.00532541468030    3.60093894696546
H         0.60170141129751   -2.43544019585581    4.32540458240892
C         0.91150132474651   -2.80049784468969    2.24816000712270
C        -1.62173565634190   -0.85088918785489    0.67743528975200
C        -1.13296013172755    0.09050708293821    1.56178827517740
C        -0.10655091211895   -0.54641322977094    2.34506523588315
C        -1.46633807260386   -3.30825898839383    0.49904899501399
H        -0.73964009779436   -4.07864124805785    0.74739314526336
H        -2.39061054964284   -3.50413509508106    1.05145284900855
H        -1.67681289530946   -3.34721254996862   -0.56901547738387
C        -2.73167433394676   -0.67743008742420   -0.28451344645466
H        -3.06738131793465    0.35417983020383   -0.21568561932519
H        -2.40587797762202   -0.89047607209235   -1.30178909140650
H        -3.56249797909748   -1.34064587303861   -0.04517026779880
C        -1.73879800114576    3.34622392150408    2.67656098100993
C        -2.83764910612470    3.83966279999647    1.87003050067152
C        -2.28976612148271    5.98329390111879    2.78963731488081
C        -1.28667372966628    4.08911892872459    3.80095360287132
C        -1.19353131455574    6.39431587112581    1.79639948192260
H        -0.47644701144696    7.04458696133571    2.28996451709968
H        -0.68514903607197    5.50647829828098    1.42458758380422
H        -1.64728476340673    6.91597418654862    0.95850570873740
C        -3.06538796471076    7.19212126421574    3.30681231773019
H        -2.38591405041786    7.87181124394603    3.81051577362495
H        -3.55009869444969    7.69174234371594    2.47454490698596
H        -3.82090400798540    6.85318833739551    4.00910862178308
C         2.51595977825730    5.13208799341955    1.63062684747047
H         1.56654561331598    5.11907972789192    2.13972224603600
C         2.64222129250311    5.65098384119705    0.35586162118397
H         1.77681501291358    6.06104794063116   -0.14224906627911
C         3.87486230351086    5.65435003344062   -0.27721626021138
H         3.97218379370692    6.06787380691400   -1.26937915499538
C         4.98150801685078    5.11767518355551    0.35975094696549
H         5.94012856180374    5.10656855459960   -0.13708742751005
C         4.86484242177503    4.57930443404423    1.62867785337405
H         5.71940596204937    4.12953054729012    2.11265732123739
C         3.62964514652819    4.59848087210875    2.26972672716403
C         2.50773986325414    3.12453046178599    3.91263131483109
C         2.84751139699245    2.73144398390790    5.25504299807202
C         3.98283783520069    3.43072297041925    5.61563841420609
C         4.66506033906792    3.40630764114132    6.92753061025360
H         4.14423602104996    2.68747642549534    7.55495865218395
H         5.70882340238036    3.11367792230759    6.82173506210927
H         4.63116052006764    4.38637880754549    7.40266814711851
C         5.18000737549599    5.39038762732588    4.70743391720567
H         5.31720483330172    5.85332310071485    3.73276210988366
H         4.68777717029879    6.10685139856764    5.37212077601537
H         6.15499129165737    5.13543538890014    5.12170009077844
C         0.45006055993301    0.56894929049059    6.59137636496876
C         0.85761992795941    0.33130838975674    7.96206595415931
C        -0.81736447973005    0.11744330436236    6.13322671042991
C        -0.77537266307929   -1.42140085685887    7.93547289442211
C         0.08989616776536   -2.54114838547038    7.33986507791610
H        -0.53503386904251   -3.22528541604577    6.77236187944371
H         0.84627596083507   -2.11060610567791    6.68606860955688
H         0.58522280912149   -3.07695586673827    8.14464001666005
C        -1.82058456953472   -1.96992050269041    8.90344798653434
H        -2.46882036042281   -2.66674748608981    8.38232381230000
H        -1.32104836431462   -2.46543608242409    9.72938801482233
H        -2.41376882405541   -1.14557611461758    9.28746503384726
N        -0.05213488971764   -1.84831407583818    1.88363249533262
N        -0.92800980722218   -2.01190009881606    0.82148552836754
N        -1.62695587072077    1.35331418551575    1.62604974758030
N        -1.22795855522296    2.09922965841226    2.57670899747644
N         3.46563877208356    4.05434899613078    3.55239583085577
N         4.40103523531980    4.18742385969615    4.56661264337961
N         2.22141317287685    1.87657733477772    6.10336068303812
N         1.10142927600517    1.39316158818543    5.74123382190780
O         0.65750199158658   -0.12031339065073    3.22423745452617
O        -0.56104526291305    3.63622970143303    4.68936958264399
O        -1.68795997277558    5.37363444281300    3.92677538414471
O        -3.21450801546570    5.13852168970147    2.15692810854628
O        -3.47945248609304    3.23277298123926    1.05240324174429
O        -1.35847065356596    0.49831791803949    5.09247490429232
O         1.61647578730298    2.75294250887520    3.13423796161894
O        -1.49363291595096   -0.77600449436522    6.88929782633551
O         0.03084738678765   -0.52975881354340    8.65941499525768
O         1.77063299322973    0.84316952648061    8.55637070085865
Zn        0.05680634943945    1.70347911036001    4.06111703018754

