71
CSD_code = GERBIO | q = 0 | S = 0 | Stoichiometry = C34H26Cl2N2O4PtS2 | MND = 4
Pt        2.28694088315058    4.98605838327372    1.31918030247148
Cl        0.56339156884623    3.55449235343944    1.13004347117281
Cl        2.82687195728119    4.67076279103476   -0.84122399978748
S         5.63193615966667    7.80368675227615    2.58653881475693
S         2.51125225998656    6.37907157771006    5.59458759658626
O         4.99801353863704    2.29190538346739    2.98834181710773
O         2.67416364999093   11.32318342661569    4.76450804008445
O         4.47245071643260   10.29136817987143    3.89714168854697
O         6.04710556021288    0.51618080841284    2.07168890728965
N         3.77098280768353    6.42011936313176    1.45622359444594
N         1.99103788465531    5.20062558209212    3.35147512134739
C         3.67193520662773    7.66829854698161    0.91230169103729
C         2.30667500692957    4.19571101070550    4.22818162940377
C         2.29176852859470    2.82786485762220    3.96185497828457
C         2.75091425609290    8.07915946027024   -0.05079343873875
C         2.79304361317362    9.38417201563392   -0.48649187366875
C         2.64173636704180    1.95460241353271    4.96832192974617
C         3.72961589758801   10.28443630957122    0.02272523118625
C         3.02181592227560    2.41636162075086    6.22710938877600
C         4.65281634382202    9.89458361637621    0.97105854801055
C         3.02599485973460    3.76648644285538    6.51634451644492
C         4.61738666187891    8.58256892767422    1.41195704797821
C         2.65124290319836    4.64694852362186    5.51604850945104
C         4.75425036504256    6.31825648662590    2.31904325085604
C         1.99560866317133    6.38399421380335    3.91587355462522
C         5.05670013331317    5.06906173240717    2.93279556832024
C         1.61797015829808    7.57556620774613    3.23736633066184
C         5.84882721585842    4.87695308032883    4.00221584916233
C         1.78436020407549    8.81335177977740    3.74174800830673
C         1.48294185339275   10.04864717600228    3.05962457115171
C         6.12764318245202    3.61318689822425    4.64544133710861
C         6.82949963037513    3.64060081597009    5.85664138509533
C         0.72010138063272   10.09783719206276    1.88736772096435
C         0.46092897503844   11.29187955910139    1.24867399637598
C         7.13309234527906    2.48950437360772    6.55185232935130
C         6.74069954069278    1.26077361443844    6.04733269356443
C         0.95753640685335   12.48065016368106    1.76001343437477
C         1.70849187260465   12.46579018900102    2.92174336093805
C         6.04686999950391    1.19535866801457    4.85258768467533
C         1.96155690534856   11.26817705163021    3.56685154387923
C         5.74128193368609    2.35057820794797    4.14931136144426
C         5.17659843751643    1.33952164396453    2.03742859238145
C         3.91208368571988   10.80462064210138    4.82721122352834
C         4.13832495866635    1.48440815509614    0.96669105395368
C         4.48728592264028   10.97970378958692    6.20518316018806
H         2.04398791624829    7.36246767652838   -0.44534812740405
H         2.09311546183155    9.71825016705928   -1.23662875255052
H         3.73467812135276   11.30261755093480   -0.33505456870693
H         5.37796235159641   10.58233710030990    1.37264045684018
H         4.55334732658299    4.23344585612745    2.46248959631393
H         6.31348877075011    5.74204499186238    4.46224985376160
H         7.13562611678225    4.59905415492777    6.25011895322869
H         7.67661622399091    2.54734144094545    7.48253925734383
H         6.97229854663399    0.35155286832033    6.58017678882555
H         5.74298101469307    0.24049757462551    4.45502280826484
H         3.82674528442054    2.52281602344735    0.84174711704568
H         4.52100939041721    1.09307832210119    0.02848482849713
H         3.26047060360206    0.90348430099693    1.24823455486877
H         1.98172910108564    2.48924430425278    2.98518629288960
H         2.62492750812126    0.89232096653553    4.77966681513132
H         3.30860292696691    1.71070086510747    6.99137598588746
H         3.30189081205002    4.13161625468309    7.49265476698158
H         1.19717288988067    7.41385760818063    2.25174009346638
H         2.21764819721968    8.90067674960185    4.73094573486834
H         0.31190124699358    9.18454060175684    1.48662095331651
H        -0.13436406593324   11.29906404782252    0.34860524358539
H         0.76013678508502   13.41614833360007    1.26014110181581
H         2.10125552533860   13.37844353006495    3.34313835426979
H         3.69379787609793   11.02671348731417    6.94471450720446
H         5.17210600359161   10.16447721816078    6.42068435149940
H         5.04532174120804   11.91413801693992    6.22993150980266

