105
CSD_code = GERBOV | q = 0 | S = 0 | Stoichiometry = C36H60N4O4Ti | MND = 6
Ti        8.96556500943499    3.64553171151851    4.91196103053797
O        10.47094837897418    3.32262794540166    3.87095236640353
N         9.29240475235295    5.70178342769663    3.97675762778119
C        11.59677393216857    3.96116538489741    3.69733395574147
H         9.61248133693955    3.36331452536773    2.02978544104572
O         7.28982400883864    4.34840779014176    5.31838927081189
N         8.23109421203068    6.55034623997499    4.02333246345704
C        12.85251913624738    3.29394041079160    3.74112747269789
H         8.35238816451237    2.62680402788991    1.14753327163655
O         9.75773517753047    4.14586834980969    6.33888866329323
N         7.87800725928266    3.45863602406875    2.92510275635131
C        13.99123847624365    4.00043349753602    3.41362449443907
H        14.94016537491731    3.49263153527838    3.44645347951246
H         8.18464256968010    7.24438707118000    3.27609090287408
O         8.55719158351932    1.97284650226956    5.07275220015950
N         8.62512237895852    3.38234455760315    1.78214882197101
C        13.98775905319450    5.34639911549169    3.03020436582915
H         7.37316268456439    6.04049723498385    4.21031300362215
C        12.77426676332857    5.99826235745933    3.01774144371590
H        12.70480369582432    7.04283793815944    2.75697572937580
C        11.59018119527527    5.34001181803811    3.36297187736355
C        10.35889993584590    6.08553621314637    3.37863144219697
H        10.37245575327680    7.06599126895448    2.87929562893680
C        12.90165636828685    1.83693246422233    4.19014470133584
C        12.35815164965403    1.76282239768010    5.62512238598974
H        12.32135027507772    0.72727242516189    5.96044419556354
H        11.35253884977668    2.18757692091085    5.67017808109460
H        13.00869941117093    2.32111405664857    6.29774086836497
C        14.32025732268192    1.25599409035855    4.18311338602864
H        14.97674621760019    1.80574863563359    4.85377748277900
H        14.74379055582605    1.26344001679596    3.18105066235981
H        14.28543131582586    0.22321641465399    4.52497107655725
C        12.03317341300805    0.97100150514982    3.26513759742754
H        12.13522378494233   -0.07921436403590    3.53388481759762
H        12.34572709102152    1.09456076902391    2.22916798260065
H        10.98598818992308    1.25323222940493    3.35890423060061
C        15.30331129506816    6.01681627252744    2.66274745397368
C        16.25259873862582    5.96456829809831    3.86803658919689
H        15.80027695331964    6.46371778798475    4.72234218800259
H        17.19003663176284    6.46400495548515    3.63108558082277
H        16.47605802917694    4.94009392590019    4.15180954745417
C        15.93216255670004    5.27622608563270    1.47405538919796
H        16.13839238213066    4.23817741739761    1.71878790257247
H        16.86834175617676    5.75089335870626    1.18666284541249
H        15.25751856124269    5.29698378683195    0.62075796021803
C        15.12166092461156    7.48418498687956    2.26500028078204
H        14.46900827462408    7.57571963085597    1.40002659792418
H        16.08761857846752    7.91287911182753    2.00477279019007
H        14.70769692796172    8.06260711056448    3.08744410930540
C         6.13319556785648    3.75247660471953    5.22074583335859
C         5.15969079407995    3.83045892018606    6.25472751648915
C         3.94829219009972    3.18517474490205    6.08832695137584
H         3.22679161079405    3.24319729366348    6.88256488083459
C         3.61105406494420    2.46083309477033    4.94345803612043
C         4.54661974409242    2.40866467577973    3.93019916023796
H         4.33552523936949    1.86920222407874    3.01738963471553
C         5.78766347105443    3.03910349894926    4.03938746186211
C         6.70900349862160    2.93608441786221    2.94121807715741
H         6.35679284839913    2.37838043198193    2.05924977312121
C         5.48797779574966    4.59917792937895    7.53209750694120
C         5.85976812679350    6.04872324104241    7.18497130269379
H         6.77767642031323    6.07574353608828    6.60290725442164
H         6.01041396881239    6.62306112163594    8.09746559097691
H         5.06091305241047    6.51606392395006    6.61148294549637
C         6.67619063447091    3.91481126328237    8.22287119935142
H         7.52143234594733    3.83910627783775    7.53593516629380
H         6.38815101170305    2.91524876217663    8.54741922865001
H         6.98028623312037    4.48594715301580    9.09899709322647
C         4.31938553025672    4.64229591639865    8.52389731793023
H         4.61874008579032    5.21066218427263    9.40258838220856
H         4.04027114695166    3.64449887984230    8.85463750637047
H         3.45090082993787    5.13107327960302    8.08799376790403
C         2.27881082882234    1.74199797031312    4.78149980091411
C         1.36103655662990    1.90701125632472    5.99593180893614
H         1.82016589934529    1.49698875692077    6.89225212604799
H         0.42974862880996    1.37130924411546    5.82135981507531
H         1.11896911927561    2.95369579128195    6.16441641926223
C         2.54311313861178    0.24232208433568    4.58514993130695
H         3.13981378768587    0.06052769001846    3.69585869154506
H         1.60333941140900   -0.29677401829685    4.48207297135474
H         3.08081215390606   -0.15865505060209    5.44166219371646
C         1.54748908333669    2.30458594346548    3.55444340259939
H         1.37526132305184    3.37174371270875    3.67768010717613
H         0.58568915312346    1.81102830155687    3.42912517181368
H         2.12656627157909    2.15657909913478    2.64738058089956
C        10.22464060685664    4.98618455626372    7.32785573747024
H         9.42020091053440    5.70208756075237    7.59937506851137
C        10.60667158573117    4.18543803138652    8.58525316036330
H         9.75051728187806    3.61225956687269    8.93382357505901
H        10.93164758879630    4.85577341784421    9.37710770799576
H        11.41550556067586    3.49749926076218    8.34606604885901
C        11.43839725286381    5.78751967128117    6.82838964995218
H        12.21023222886278    5.10075543553985    6.48391722846116
H        11.83794367193083    6.40919442771909    7.62640039597753
H        11.14467245406965    6.42083050293159    5.99448411514980
C         8.53637007076304    0.76647129863041    5.74070973904759
H         9.28955929747824    0.09324885118244    5.27623122106966
C         7.14925387002512    0.11474020485730    5.60038389099632
H         6.39542516205784    0.78476405303096    6.01129371193759
H         7.11788616186314   -0.83633002406927    6.12649816452520
H         6.92098236292237   -0.05094063387242    4.54959122817020
C         8.89206145541674    0.93915770168359    7.22488358809036
H         9.78360931176914    1.55960795158652    7.30664716855026
H         9.07575632524635   -0.02719147740523    7.69016139144190
H         8.07156838559718    1.43500424832071    7.73902818690082

