81
CSD_code = GERJIZ | q = 0 | S = 0 | Stoichiometry = C26H47N2O3P2Rh | MND = 5
Rh        5.08864272810537    7.83920444778027    3.24772188023061
P         4.27423481026790    6.00067620289447    4.48802377156620
P         6.06981300962404    9.90731009923802    2.85233718854100
O         3.19426466676641    9.05416117194732    1.83119523721718
O         7.36167010436945    6.50670455195170    2.54832698871666
O         5.95431308007097    6.64145383833719    0.92225721811535
N         3.48395588925237    8.00039506398900    2.29214741038238
N         6.27413517284456    6.86508331173259    2.08394498508818
C         4.07003046315730    8.94287934734785    4.68991808830227
C         3.38237767878738    8.31661403956342    5.73340652727466
C         3.97137800313089   10.33330906292576    4.54837215865205
C         4.74094595140330   11.03195173779748    3.45607103887004
H         5.15301563117377   11.98560058894412    3.79402957146912
H         4.07023016600530   11.23193303305752    2.61430051257477
C         2.59068045463796    9.06022071351554    6.61100897980779
C         3.56213448613421    6.83943622990549    5.97656118591394
H         2.62524605673396    6.35951932646317    6.26417296917362
H         4.25936282643451    6.72210192929824    6.81290730263827
C         5.56141761032719    4.84252220185293    5.27001542965895
C         2.80546696932120    5.03486116987659    3.78390807402681
C         6.49068143444844   10.57843899472453    1.12788097973330
C         7.50790662656339   10.24949346764746    4.05643837956355
C         3.16039150158255   11.07935218812363    5.40405545015080
C         2.47868799684229   10.42719521761595    6.41876755129883
H         1.85004228112117   11.00269049186341    7.08420684238089
C         5.47201030419359    9.96545836518069    0.16162724041979
H         5.52235984108960    8.87677207738018    0.17388301647621
H         5.68671780882647   10.29696874630453   -0.85350305528554
H         4.45575620959078   10.26722182683153    0.40359779348827
C         6.96150229293703    9.97986389911810    5.46206278809227
H         6.17635006514620   10.68066674128818    5.73617282413380
H         7.76582995096451   10.06986504583717    6.19167739614301
H         6.55670134425272    8.96798542279901    5.52662691871376
C         8.64385018151776    9.25386253236343    3.80455104282286
H         8.26086577601438    8.24602592490888    3.65245082994623
H         9.30828085581239    9.23089669932161    4.66788698670531
H         9.24064039231937    9.52279428882998    2.93919629728505
C         3.17516024294606    4.67683050394673    2.34264071226162
H         3.37513748972539    5.57863831840606    1.76639877493458
H         2.35559915130901    4.13900328137531    1.86810518063612
H         4.05958236181550    4.04560831177287    2.30414015749755
C         6.10481881958531    3.87679312459687    4.21776670668567
H         5.35455305024182    3.15354633156700    3.90797201198741
H         6.94910582554944    3.32565788187075    4.63072819840844
H         6.46024931839343    4.41427694558843    3.34180488309287
C         2.42971200696907    3.77314063799091    4.55760415367562
H         3.17624958729629    2.99235021234235    4.44114876991040
H         1.48821166850089    3.38785644236579    4.16634384352572
H         2.29008440306175    3.98043695609426    5.61685548377744
C         6.69951508781218    5.77813487291504    5.69808464491628
H         7.11219767207559    6.29557743447045    4.83228220966503
H         7.50558857272304    5.20123757822677    6.14966431639200
H         6.36748499795568    6.51628479729610    6.42779111790358
C         1.86263484969562    8.40445886594103    7.74823741792761
H         1.11883079769712    7.69804673569824    7.37826904495781
H         1.34948634591724    9.15038554533653    8.35015847703166
H         2.55401856493403    7.86018956996877    8.39149174553941
C         7.87858504658203   10.09980460514152    0.70199914435902
H         8.66892150135456   10.64735316542578    1.20871983499513
H         8.00388520713602   10.25471097910634   -0.36907712153127
H         7.99748682265586    9.03549931345988    0.89852909005628
C         3.01800720084471   12.56447009223808    5.23980269871641
H         3.96146885976119   13.07313644617293    5.44387486668766
H         2.27062372063347   12.95208266178818    5.92777588316060
H         2.71438380644448   12.81296589677421    4.22362730361108
C         6.39889401663895   12.10149071788252    1.02995516828183
H         5.38080287308329   12.44667922216818    1.19190849499775
H         6.69470794259187   12.40570876724949    0.02635645161914
H         7.05247892637302   12.60360007036877    1.73581372055244
C         5.08206682469263    4.05257730336960    6.48938505296019
H         4.56866021005364    4.67859718414805    7.21493057318085
H         5.95062341296223    3.61946373424203    6.98554755024035
H         4.42501747898991    3.23567686089959    6.21173022248188
C         1.59307665475609    5.97353307403554    3.77290074320456
H         1.11431548695281    6.02308255743096    4.74817701325621
H         0.85671994375973    5.60403092220862    3.06161108731836
H         1.87707504442491    6.98008770369196    3.47347419374962
C         8.05427112344466   11.67460094368717    4.01248799903836
H         8.57459161405124   11.87912885198900    3.08070415318973
H         8.77287964931865   11.80128174282463    4.82239599654056
H         7.26884519632394   12.41489283674645    4.15157622858100

