63
CSD_code = GERJUK | q = 0 | S = 0 | Stoichiometry = C24H33N4PPd | MND = 4
Pd        3.91160902242713    7.45939977410192    4.45780003653364
P         2.26840782731549    8.02400819233500    2.87628442568380
C         1.99176216153930    7.66882543957069    5.37002374301087
N         1.26098541286557    7.95771492173913    6.45100270652807
C         0.03514792757517    8.45820995944884    6.07843500708232
H        -0.70512029292565    8.74880128976090    6.79550882023174
C         0.01648394981756    8.50411543678015    4.72497665305942
H        -0.76502364799258    8.82979043637362    4.06880922097047
N         1.23104077148523    8.02292793323646    4.29331239298485
C         5.88684904438127    7.15284510921047    4.05259872978712
H         6.52010835015692    8.02341370403630    3.86502729534783
C         5.60231315173873    6.73788095660288    5.39752901392582
H         5.47582877653273    5.67105643266772    5.61345528658009
C         5.76259210041499    6.19669349934673    3.02653725749290
N         5.64837601957134    5.40880654157366    2.19023662653310
C         6.07748558423338    7.52159655768418    6.46608048056982
N         6.48761598153038    8.16362053437085    7.32987066163766
C         1.56613658055235    6.55230125954739    1.94128267696865
C         1.95766787597770    5.37494080317394    2.84617708779829
H         3.02685654426960    5.42830820100775    3.11205173446375
H         1.79069923048948    4.43131744605306    2.32974344555761
H         1.36700339824245    5.37131873730448    3.76386659771281
C         0.05814704288995    6.56062295760413    1.71963266289119
H        -0.47523471343317    6.71081224286973    2.65655855874774
H        -0.24885358409962    5.59792352819491    1.31213547890161
H        -0.24303303185044    7.33150647939836    1.01617065672430
C         2.33213189676344    6.43936626316485    0.62570655837312
H         3.40547924116725    6.49490153426908    0.81522040467571
H         2.04946549784285    7.22845862312833   -0.06848629545365
H         2.12321521845675    5.48205251388183    0.15125678525233
C         1.94039388057965    9.71912860191357    2.11984807961772
C         0.58888094091226    9.95399401292543    1.46033541347617
H         0.49277964002537    9.36639052440258    0.55062222076841
H         0.50001754605886   11.00569131168312    1.18817077458565
H        -0.23517999941777    9.70988834230666    2.12505586465743
C         3.06996065026860    9.91303041343059    1.10528405280432
H         4.03192478417069    9.69278746345900    1.57177320915962
H         3.08764341523176   10.94208508305159    0.74983886446878
H         2.95093588430857    9.25806972331777    0.24589471683546
C         2.16856896687181   10.68404776179365    3.28799089843356
H         3.05978077700963   10.37929621133955    3.85276567959577
H         1.31673393674119   10.69959679870082    3.96615297018415
H         2.33052587315557   11.69592642795606    2.92093137216725
C         1.79460616540619    7.86505771339764    7.76480264087225
C         1.27958035780528    6.93952252839627    8.66744363372841
C         1.86202841859191    6.84955527405857    9.92402984157372
H         1.47061961339608    6.13253534850677   10.63148768177293
C         2.94312387334671    7.64168997020714   10.27740101203667
C         3.43792178823625    8.55326926460227    9.35302452663888
H         4.28858810060809    9.16348301795860    9.61568590174089
C         2.88044417152681    8.68458904179941    8.09242981217742
C         0.13355454584320    6.04990369276642    8.28626131872906
H        -0.81152984242920    6.59143123746551    8.33872127333654
H         0.07277699728772    5.20077275920192    8.96163462557746
H         0.25463570108405    5.67838037424261    7.26979081920232
C         3.58472156257204    7.52409284604840   11.62521223415889
H         3.09183489781176    6.76784107440729   12.23062218936184
H         3.53946314283719    8.47704066413769   12.15069016290007
H         4.63425296167436    7.25603491363539   11.51541996110108
C         3.42374681824589    9.69071857256832    7.12147334647618
H         3.89032811778457    9.18712698071053    6.25364139493015
H         4.18798814364798   10.29610733611034    7.59940145107440
H         2.62980483085413   10.34167740501919    6.75205734529741

