63
CSD_code = GERKEV | q = 0 | S = 0 | Stoichiometry = C22H37N2NiP | MND = 4
Ni        9.30017798286105   16.47030371456607    7.90155793595754
P         9.20731922002588   14.94419336661214    6.23715255011768
C         7.40232108481729   16.28114347179984    7.37062085641358
N         7.53457808866529   15.38972744288555    6.34802906565728
C         6.31366341377027   15.13335214111558    5.77481394925912
H         6.16835407115393   14.47528669561279    4.94191361830787
C         5.40873525638067   15.87516574233263    6.45503783718349
H         4.34643632443311   15.95580779396538    6.33967719032030
N         6.09217282674010   16.56676412176176    7.42689771993520
C         9.10565463930718   17.85991700621854    9.27261680112299
H         8.09774135845463   18.28894550907128    9.21166730083227
H         9.81638388775579   18.68465477875982    9.18157638994517
H         9.22951832766697   17.43478635100828   10.27561795932771
C        11.21279988129822   16.54428571172915    8.24868683510516
H        11.58045908947068   15.50492900286381    8.25036744357235
H        11.62375339620307   17.02762879750604    9.13712395766527
H        11.65833463595683   17.04856827653475    7.37459071346824
C         9.11636014693815   13.11693543910825    6.70349379400778
C         8.09495105674813   12.24506808481379    5.98054829333198
H         8.32310016585804   12.13248615811749    4.92500083828789
H         7.08857049782442   12.64548419606844    6.08383460780464
H         8.10045352509069   11.25136296856736    6.42959542450393
C         8.75805746678429   13.17617111599554    8.19431396555640
H         7.70552714149479   13.42310676459570    8.33061493371015
H         9.35366011487416   13.93946596494517    8.70629784850289
H         8.94465188344133   12.21724246743880    8.67572528155756
C        10.52324453859717   12.54382166026960    6.54254983657903
H        10.76952150455882   12.39292985764484    5.49313082718390
H        10.59968694042324   11.58093387019203    7.04679472005210
H        11.25845757220488   13.21745708226558    6.98212417493337
C         9.58251301429128   15.23546368246828    4.41085099544709
C         8.99739937537096   14.26336038228976    3.39380716116071
H         9.46315306902307   13.28352915907871    3.47151832033228
H         9.18707682204449   14.64050251814869    2.38834430976597
H         7.92151717506271   14.15508668464215    3.50989553618438
C         9.06217808917940   16.65370805677136    4.15360672814039
H         9.34588266171049   17.31407114578711    4.97742882390217
H         7.97691923465217   16.66867564735283    4.05837474327782
H         9.48826243029750   17.05573725327577    3.23548644367298
C        11.10947371264086   15.25250741812955    4.30726756851170
H        11.52595791262767   15.93347812426743    5.04835034103335
H        11.41768336091762   15.59089048672408    3.31858554098534
H        11.53250537832745   14.26456453732460    4.47396536120540
C         5.48489237881403   17.44526566155873    8.36028512514707
C         5.42139696434455   17.06913431547067    9.70325220220163
C         4.81025209535936   17.93185317004312   10.59729339339497
H         4.75412559454473   17.65599637808597   11.64039914796917
C         4.27498604118759   19.14622392919594   10.18626141443462
C         4.37223123204584   19.50093841277538    8.85003367609307
H         3.97772968859890   20.45147258144320    8.52039839205773
C         4.97919300483994   18.66670037183426    7.92202711103028
C         6.02305496842407   15.77535089548658   10.15478057181310
H         5.59349691085442   14.93498019581667    9.60844733845167
H         5.85601109839512   15.62287479227756   11.21717215447038
H         7.09838586852968   15.78937134108559    9.96641567209798
C         3.62504347218533   20.05543810550390   11.18410150332986
H         4.35844029795862   20.39466170790304   11.91470104044985
H         2.83803325455403   19.52974578407892   11.72289877641128
H         3.19398602544593   20.92622969886114   10.69701018481584
C         5.11720373311503   19.07999624113832    6.48728847768009
H         6.13631535954963   18.90893633245008    6.14233369544874
H         4.88427804138328   20.13515496710720    6.37229931872917
H         4.44287569392948   18.51067446728227    5.84684626014405

