64
CSD_code = GERLIZ | q = 0 | S = 0 | Stoichiometry = C16H36B9N2Rh | MND = 9
B        -3.32431054141579    2.85906572322664    2.61637319888224
H        -4.45071319374879    2.71357094981710    2.93712255773380
B        -2.16393453653844    1.55355020896358    2.75114919068366
H        -2.55124415508410    0.49645095092583    3.11495923057364
B        -2.61675326698447    2.08116542169110    1.14432599739258
H        -3.24373273179449    1.38321395512364    0.42917089094242
B        -2.88445773662409    3.80422120419610    1.21360840722135
H        -3.71352123288836    4.32072575870911    0.54719344774904
B        -2.02188580908811    2.90097117084599    3.85800217333750
H        -2.31600862170573    2.90822999081967    5.00602785091755
H        -1.52971716719264    4.08403778891210    3.57300106880871
Rh       -0.08243813373604    1.71494578458618    3.69139208609320
C         1.49414153156694    0.97583902852185    5.13607313787591
C         0.26902686025578    0.90027563961670    5.85948286576096
C        -0.56473832771113   -0.02675097156249    5.17895248327448
C         0.19118954297062   -0.62470591537677    4.11581770599370
C         1.45997192363053   -0.01247643819684    4.08396709495588
C         2.73603407926009    1.67896365950794    5.60309366430952
H         2.49198362535916    2.58724230491902    6.15099718907926
H         3.38011635591500    1.94349103537154    4.76656624128228
H         3.30115255667153    1.02327588038026    6.26932356689533
C        -0.03431549534678    1.54912700212753    7.17591905920788
H         0.23364590979203    0.87459430476246    7.99313206377855
H        -1.09449374043460    1.77708212181597    7.26454325763794
H         0.52793568230938    2.47209368577915    7.30335600740353
C        -1.85888587655751   -0.55683936510648    5.71831208690280
H        -2.41599589700999   -1.08958109224142    4.95251039907503
H        -2.48638899214732    0.24569214292071    6.10061661165434
H        -1.65758983814965   -1.25146395039060    6.53734728637201
C        -0.24798803532329   -1.81098243995881    3.31449449022066
H         0.36278023346200   -1.92823112790401    2.42259721281536
H        -1.28631855792788   -1.71288886546482    3.00407891355825
H        -0.15585635325426   -2.72004434806104    3.91337168361169
C         2.63916269553893   -0.43343145632633    3.25903285785486
H         3.21468623287128   -1.19534284726209    3.79071971499018
H         3.30042237386516    0.40740648288724    3.05847108343859
H         2.32319883694969   -0.85269068471019    2.30625040060672
C         0.93377035702707    3.18250710118329    3.17711310372779
N         1.81857395717396    3.93389176685577    2.97027073314348
C         2.68434156304860    5.02069770123367    2.81818152223390
H         2.27576925656083    5.69171016620879    2.05126970824662
H         3.64970553055506    4.63930753894130    2.46531844437138
C         2.86474530508065    5.77268259595781    4.13627970453145
H         1.90818186165003    6.15269605518654    4.48721143762941
H         3.54591920823239    6.60742266204081    3.99357231231943
H         3.27361084403886    5.10966906676221    4.89503156908777
B        -0.91034746041226    1.67552472413834    1.54448026742601
H        -0.37308581325370    0.76919208369651    1.00423804234115
H        -0.35686106175233    2.77354276721959    1.10290899095121
B        -1.39685964062899    3.22670999702096    0.47807868862616
H        -1.15669454153694    3.24235452954338   -0.67743282037659
B        -1.39451360233086    4.83963980256656    1.37982631489534
H        -0.31382768070769    5.01580889335209    1.82199420696547
C        -1.91616324377180    6.03860195330346    0.72058955071073
N        -2.32756921967348    6.98120690092393    0.12778605598056
C        -3.22715244493848    8.06103184819475    0.03149027623687
H        -3.83061045242882    7.90760913921589   -0.87030729359722
H        -2.63856347982687    8.97518720792995   -0.10481568731829
C        -4.12824048874032    8.17746887528422    1.25910176422583
H        -4.69060345370709    7.25737459186970    1.39707697353997
H        -4.82197230618070    9.00432266539910    1.13121058511029
H        -3.53054063583744    8.35087738218381    2.15072599732661
B        -2.52273208059931    4.44748274616223    2.82560720159732
H        -3.08654047678439    5.34227654378503    3.35153917118488

