69
CSD_code = GERRIF | q = 0 | S = 0 | Stoichiometry = C22H32I2N4O8Pd | MND = 4
I         1.25612974601429    3.54907346360150    2.33651882502289
I         3.78146929293177    3.84571621653391    5.28012049308103
Pd        2.71972717140447    1.97053642889493    3.80910743249168
O        -1.14102077139951   -1.95521730620914    1.57326371269014
O         0.44216056438719   -2.96149554191453    0.33548013708623
O         3.67212865689236   -0.92796204306393   -1.09773219203516
O         1.49117615866157   -1.28933642905779   -1.51858061820613
O         2.41778561647619   -1.23511926613327    8.64032790743194
O         4.61307074161978   -1.01690040178400    9.10254143098877
O         6.16357566988425   -2.35109271753856    7.18674421520015
O         7.36799796349045   -0.73516272349814    6.19462690443157
N         2.76636130184588    0.36128892160740    1.34707091876871
N         1.07773934687199   -0.24967459357818    2.54830068444345
N         4.83936819153654    0.21724375576640    5.10460364965335
N         3.02030070849567    0.38819897946880    6.26224437466578
C         2.15484674448046    0.55266083113298    2.53074170653291
C         1.01182489223718   -0.97404127975941    1.38120956079319
C         2.08224272096752   -0.57436303737611    0.61272606022690
C         3.87452198321716    1.15836289433668    0.88075530944573
C         0.12380444894307   -0.25570645352135    3.62911490680335
C        -0.02501007046974   -1.99208593387799    1.11730772611498
C        -0.47882030388528   -3.99974892616605   -0.01464637495385
C        -0.55548229196195   -5.06525686593462    1.06876561226807
C         2.51755648268099   -0.95850911576092   -0.74700089879138
C         1.79249622664719   -1.66246312259174   -2.86730687040152
C         2.32408658111215   -3.08457688414977   -2.95866058932286
C         3.59788772607417    0.73398595199075    5.09764247216414
C         3.88902657780640   -0.36868043288089    7.00406496616842
C         5.04608922017486   -0.48448647954221    6.26988332047179
C         5.78761377950984    0.45426347987501    4.04628640703132
C         1.75027222051132    0.90066027997136    6.71556511942482
C         3.54159812496367   -0.92197607145556    8.33229092370587
C         4.43765475139960   -1.59860352904728   10.39857225187296
C         3.97412801934259   -0.56257004483676   11.41170472927595
C         6.23493787107001   -1.29605054586202    6.61117396867135
C         8.58473144546417   -1.43323439622057    6.48446954495993
C         9.65899175936312   -0.94178139779150    5.53275438137551
H         4.07535650448302    1.95049602300592    1.62503192382831
H         4.76032895276940    0.54061185011382    0.73049210007515
H         3.61677640754107    1.63286592998225   -0.06712880779699
H         0.04344099245774    0.76608848915202    4.02286029240293
H        -0.84738046596566   -0.57276908434229    3.25604244836947
H         0.44565102951982   -0.93352470499141    4.42415648643265
H        -1.46457862120680   -3.55525078287702   -0.18264296292692
H        -0.09364085093303   -4.41505948507638   -0.94752689099523
H        -1.20296781323183   -5.87153755880533    0.73725634731072
H         0.43414151354442   -5.46651456273529    1.27463777086494
H        -0.96448816866946   -4.64135226086755    1.98253991748217
H         0.84556159455516   -1.55659818330674   -3.39910502694517
H         2.52857071876657   -0.95907939111338   -3.27054683878069
H         1.61912312383050   -3.78072683994937   -2.51197204787982
H         2.47130621478759   -3.34746923034368   -4.00208228072644
H         3.27531811465497   -3.16270600033425   -2.43844072024230
H         6.77862722555087    0.61114285896411    4.46596465945336
H         5.81561085747379   -0.38818641657416    3.35053277541255
H         5.47797391883733    1.36407335214000    3.51381418920650
H         1.89018222215502    1.46299708238227    7.64056020896364
H         1.35183901597335    1.58654251044832    5.94559545226217
H         1.04969830286531    0.08726433849350    6.90472167274840
H         3.71037653063616   -2.41292289217365   10.32335705773295
H         5.41969064343134   -1.99825651791778   10.65672321035483
H         4.66710763125928    0.27483672915844   11.43914792678065
H         2.98547446225221   -0.19556850363760   11.14694256608339
H         3.92661424054308   -1.01659154617669   12.39701073066523
H         8.85547837521657   -1.22924655828585    7.52554737318986
H         8.40674399690370   -2.50844385388517    6.37739426312495
H        10.59867646576320   -1.43416952759539    5.76379903499403
H         9.38820116796451   -1.16485565440257    4.50379499536933
H         9.78821642748682    0.13231472796277    5.63617006356557

