30
CSD_code = GERTIG | q = 0 | S = 0 | Stoichiometry = C11H12Br2ORuS3 | MND = 6
Ru        6.36199944593217    1.87879650668930   12.18786322290522
Br        6.86612195360203    1.30490202837734    9.79805281036818
Br        4.99376091561105    3.86691037439945   11.50349708332708
S         7.86929349835147    0.21360909295274   12.89265551377480
S         6.16951163042584    2.53702611840812   14.43970786173444
S         8.27005393196224    3.33014534517287   12.10228175087785
C         9.41115045156341    0.77336587761123   12.07388368924643
C         9.72950234755910    2.22888511761516   12.33919264657835
C         8.24721225248647    4.25492974658372   13.69719538347332
C         6.89224480016560    4.22043549128790   14.37008528724742
C         7.52663085345339    1.67805070802838   15.23622203751315
C         7.83261596954732    1.99964371350289   16.55195790948796
C         8.87180442223426    1.35553031738988   17.19735555438626
C         9.59390259280192    0.36961007702682   16.54062130725880
C         9.27639514977816    0.02872638729214   15.23896200824892
C         8.25003323638990    0.69089654986057   14.57838609966131
C         4.86045668812650    0.78885183759341   12.17445512933049
O         3.93374095015262    0.12652025796813   12.14750702221876
H         9.21832411001338    0.59579859376854   11.01262580093313
H        10.22205418977169    0.12881131575288   12.41362950272323
H        10.09662634661800    2.37480569320057   13.35629144287624
H        10.48361634060270    2.57322517644020   11.63004493591267
H         8.50778439366225    5.28519264042370   13.45141574536634
H         9.01867808580164    3.83047224982776   14.34127249864875
H         6.95379207392343    4.59918209769368   15.39039040839394
H         6.15326768119719    4.79600049480559   13.80656387398722
H         7.25009408486818    2.75118790444588   17.06276651994359
H         9.10978665321868    1.61402580217643   18.21723691631666
H        10.39620795693076   -0.14349314237896   17.04726908449965
H         9.81733699324814   -0.75334437391480   14.72821095275889

