76
CSD_code = GERTAZ | q = 0 | S = 0 | Stoichiometry = C29H41ClN2P2Ru | MND = 5
Ru       10.05018485412551    2.89480178687983   20.98258800202172
P         8.60031220339999    4.44507484697856   21.82019785095487
P        11.61276540281987    1.26591060575915   20.66960182317371
Cl       11.77365350202082    4.56965044446877   20.89885018503713
N         7.89605447826667    3.52929925763779   23.07909599873102
C         6.86687020181453    3.75972329820062   23.93867508860948
H         6.23654776561912    4.62417967486833   23.85502391337056
C         6.79820405872278    2.72056544950590   24.83013310110237
H         6.08600779262100    2.61128526778343   25.62527860687363
C         7.82573071605486    1.82212787857685   24.50704459053253
H         8.01670277084200    0.90523087214057   25.02356725087909
C         8.51190106624762    2.32865773993785   23.41057504119659
C         9.58173361673700    1.87668605690045   22.57274797103326
C        10.21372903011537    0.61267589028370   22.81258666677209
C        10.12034133459041   -0.37700395814770   23.78210401972483
H         9.53669484162897   -0.35183807275497   24.67818519013092
C        10.95026920553742   -1.44170212379102   23.39896178128944
H        11.08882177273531   -2.36207018055925   23.93297577653035
C        11.54573283651322   -1.09220295742897   22.21502593056924
H        12.22028349978113   -1.65821849902062   21.60167816002098
N        11.10936348513556    0.14645840111588   21.85610992803245
C        13.33858359393604    1.67906345647509   21.26572163577326
H        13.61208144635643    2.58181939994925   20.70544196113270
C        13.22672205395372    2.05191323592122   22.74383072112578
H        13.06405002851343    1.16680488461711   23.35765147524435
H        12.39208257536877    2.73881016502047   22.89930540167612
H        14.13774833142211    2.54368712160844   23.07904434710269
C        14.41027500563283    0.61357470071080   21.06575678577647
H        15.33886633689162    0.96397356352367   21.51483267028775
H        14.60553391385406    0.41658327526456   20.01437735615744
H        14.13455054178086   -0.31579691789696   21.56074212542348
C        11.90440118041415    0.16846763641362   19.19785565616088
H        12.66362776368346   -0.56908152050889   19.48268380562312
C        12.42489295322406    1.02842079822857   18.04890252310974
H        12.71122997854665    0.40400464638989   17.20371600285761
H        13.29064411252113    1.61540271007336   18.35351246542928
H        11.64761679860300    1.71491053608241   17.71438703916530
C        10.62768833212869   -0.56283846892986   18.80100940266604
H         9.87697065380479    0.14166911755052   18.45010449035346
H        10.21112140251750   -1.10964079838786   19.64510443628553
H        10.83755727615505   -1.26904732921915   17.99866627135857
C         7.10495704212418    5.23320816938991   21.04766462366016
H         6.63094070486703    5.86675749227259   21.80593071395118
C         7.58445993687505    6.09393522058938   19.88195930447449
H         8.05351260954859    5.46728103586328   19.12340017399683
H         8.31544943393163    6.83111279750455   20.21268007681212
H         6.74836139998073    6.61817037036214   19.42136672742658
C         6.10202246932644    4.18224490884914   20.58715009630524
H         5.20246550110764    4.66853116862865   20.21161289869292
H         5.82203209172037    3.52064729195471   21.40490535947353
H         6.52184313747900    3.57713539796570   19.78855154121018
C         9.39259911760269    5.84082268107815   22.78380925709793
H        10.08152662175506    6.31051263732622   22.07101158230808
C         8.57806599417779    1.84275400874303   20.01089423747954
C         8.51692802020836    2.45839034141137   18.67486007780261
C         8.45871100575696    6.90076615045624   23.35672859711578
H         7.71313132751986    6.45324099396734   24.01154539379607
H         7.95804676301290    7.47219561635016   22.57866539179388
H         9.04605829265354    7.59818214164766   23.95290846267860
C         9.54410694913313    3.35034776473766   18.33200541519242
H        10.37866023885151    3.52178775431773   19.03398171559418
C        10.21937055496678    5.20047491362321   23.89908484449914
H        10.90522290473567    5.92874342552710   24.32742226045816
H        10.80763520173042    4.36827019811973   23.50580144987274
H         9.57509220559696    4.82164301804969   24.69163594792741
C         9.55264998603902    4.00575006817874   17.11514492224710
H        10.35565016711191    4.68870825111931   16.87584609348860
C         8.52958401236540    3.78696500106250   16.20607196681830
H         8.53243544303253    4.29656513224844   15.25404736059473
C         7.50286355999786    2.91455917583424   16.52847122350761
H         6.70032206068798    2.74642083160979   15.82447015436363
C         7.49171914161188    2.26014572482094   17.74600841021719
H         6.67430244241637    1.59540471658973   17.98289345955629
C         7.81426801445516    0.80847780186681   20.35114476750089
H         7.12982061107608    0.33303057263532   19.65928378018803
H         7.84563632191582    0.36872533306446   21.33438826260539

