40
CSD_code = GERTEC | q = 0 | S = 0 | Stoichiometry = C17H16ORuS5 | MND = 6
Ru        9.78715741442481    4.18811071477437    3.74543312070488
S         9.68542652318401    6.04299320216551    5.27855445690130
S         7.71457368834429    4.96360204376646    2.84106450124085
S        10.05938707410690    2.46907008273484    2.11193991747374
S        11.97775906632900    3.61283562293408    4.56333068113182
S        10.88923040692172    5.65294893205423    2.27597617059456
C         7.26391919399863    6.29181624649629    3.94619239685861
C         6.01757557381297    6.87065181406202    3.75395244566211
C         5.61460613305173    7.92255848661017    4.54994168869826
C         6.46619014157420    8.38376869592409    5.54977406033254
C         7.69279271075161    7.79680143258638    5.75211726933425
C         8.12425784851029    6.72278982854869    4.95858241861147
C        12.42706700021090    2.27374222260572    3.56104044939466
C        13.66833028183743    1.66096317619207    3.79289977630850
C        14.08664064841936    0.59146594160150    3.03750935965672
C        13.28276806612857    0.08261382036985    2.02122968207713
C        12.05903908317554    0.66824987622862    1.77306356489330
C        11.64695221358856    1.76197084039294    2.52145699224618
C         8.22862794522107    5.97331513226347    1.38183431036046
C         9.54940880550858    6.68340228385252    1.57956032613134
C        10.53860003103504    3.40683099231188    0.59523266003867
C        11.42510123248070    4.59954201026424    0.87956690589328
C         9.00221074701583    3.08243162769451    5.00199821079543
O         8.53703379931607    2.41825423212897    5.80575712874439
H         5.37481301934453    6.48592695144099    2.97519080471581
H         4.64787093507098    8.37679846865367    4.39977312298096
H         6.15851530131395    9.20599166092369    6.17830317013256
H         8.35406944633479    8.14242603257034    6.53106841221355
H        14.28063030726021    2.05439138871503    4.58901473023509
H        15.04506655423103    0.13761214045562    3.24057280706075
H        13.60731044689774   -0.76388986781204    1.43679253347568
H        11.40942124721004    0.28730870061670    0.99808579919811
H         7.42844436745592    6.69688252826135    1.22135698135190
H         8.25317263688709    5.27856831397992    0.54242814204205
H         9.91654541767155    7.10871106915068    0.64469312105043
H         9.44281702844405    7.48011498448439    2.32033739163517
H         9.59568671570604    3.68929588782213    0.12727386920241
H        11.05650053751794    2.69519630076278   -0.04895716705429
H        12.41785403261218    4.26372591384942    1.18952369241819
H        11.52062637709865    5.24271026755916    0.00413409525721

