103
CSD_code = GERVIJ | q = 0 | S = 0 | Stoichiometry = C40H59P3Pt | MND = 4
Pt       -0.04222147923276    6.43845118769376   22.92568157933190
P         0.74925258349081    7.84055571696683   21.19081369246936
P         2.03570291084518    6.96671578314754   23.87556219903414
P        -0.57167375894149    4.86119123055386   24.54772852139997
C        -1.60924700790443    5.77412904071392   21.81535708372214
C        -1.32870141904394    4.76141405038704   20.89593356495025
H        -0.34852615792272    4.29285263491911   20.89381803974949
C        -2.28048336832794    4.31246469217212   19.99637678233811
H        -2.03266130156745    3.52557247901976   19.29594597237304
C        -3.54864248331536    4.86725448856818   19.99232810657042
H        -4.29329236360520    4.52440303271724   19.28756921251317
C        -3.85713907893546    5.85481045643586   20.91039803991025
H        -4.85030380868018    6.28416139907258   20.92842078053867
C        -2.90153262987901    6.29776597539160   21.81081551403325
H        -3.19178748670889    7.05482758069624   22.53102496581945
C         1.21802800934670    7.05651309003572   19.54814280425378
H         0.72249894284723    6.07677139596140   19.57620042328627
C         0.54676356051425    7.89671838051109   18.45692926428422
H         0.32782444126998    7.28491130422564   17.58046456272596
H         1.21288635448053    8.70479710151129   18.14328561463622
C        -0.72089759071457    8.48249522491886   19.06423326759898
H        -1.20260396478498    9.19567995051871   18.39294391884476
H        -1.43037590979060    7.67963600720092   19.28292687162881
C        -0.29099496574630    9.15139468020440   20.36931164823046
H         0.33813229022708   10.01939268944423   20.13972038532127
C         2.70863430234416    6.84174355838925   19.32016505317485
H         2.86286856166240    6.27705642867829   18.40158274487251
H         3.15463167403574    6.28455875289276   20.14212316971503
H         3.23576926488028    7.78954787318991   19.22982374087933
C        -1.44960736299198    9.60083851182577   21.24384667758937
H        -2.11231815951093   10.26376341313221   20.68888943362103
H        -1.07599658195969   10.13575359025780   22.11473776253663
H        -2.02066347377763    8.73767357556739   21.57834467679199
C         2.25470223577420    8.72363060676429   21.73836429255146
C         2.85998814852836    9.71270880324311   20.97038873900659
H         2.42222608276445   10.01288613300262   20.02883334970197
C         4.02855000600973   10.31917402737070   21.39188609668684
H         4.48663844835636   11.08903727331011   20.78827175700210
C         4.61768145740402    9.92282344309170   22.58071591444843
H         5.53968256806086   10.38118226827099   22.90762606984390
C         4.03278189245567    8.93072977383107   23.34601023698285
H         4.52145989348392    8.61523947311031   24.25412816629615
C         2.84166464529401    8.33130247343673   22.94977249038921
C         3.21451286237385    5.58554330346686   23.40512387758246
H         4.03760981686054    6.03797276979084   22.83426815286768
C         2.51896000975766    4.53296184608688   22.55293086545429
H         3.22725156060801    3.77799744634393   22.21258520682088
H         2.05716698407430    4.99662436734439   21.67834679199722
H         1.73601278372746    4.04229304976655   23.13202344567650
C         3.75485287898768    5.02712616577923   24.72210273658622
H         4.68453767074890    4.47824244933204   24.56147232885482
H         3.01727893575346    4.33975839744808   25.14159841415897
C         3.94674872336528    6.20198809496283   25.67267160687515
H         4.17045220187522    5.86431614812533   26.68718066307616
H         4.78162676765538    6.82113815764466   25.33862407214296
C         2.62709359850364    6.97588865385697   25.64629519178179
H         1.87293627031118    6.33618510424609   26.13037119761232
C         2.62190278482694    8.30438140351401   26.38877628893822
H         2.99809124383171    8.15210022188277   27.39986652531797
H         1.60570095705227    8.68317247193870   26.46299749370309
H         3.23673195723868    9.05940614105447   25.90519926488354
C        -0.57110701522619    5.75614365457042   26.17374421846406
C        -0.09820725668176    5.04724865106616   27.29273519062908
C         0.30552805077608    3.59347134417368   27.20547904285061
H         0.31616580037768    3.31404269962637   26.14485171048279
C        -0.73117581003940    2.71963589359609   27.91387254951036
H        -0.47328596030633    1.66775286479945   27.80895116616569
H        -1.71730601137913    2.87841313519052   27.48417179695191
H        -0.77951252975567    2.95974458458340   28.97420659902030
C         1.69858419026010    3.33851664283042   27.78331659108214
H         2.42019632851010    4.04073959975745   27.37259468619124
H         2.02260724158470    2.32832487208919   27.54086019413226
H         1.70316338737698    3.43995440114232   28.86630606210413
C        -0.02783348978145    5.66576050695043   28.53118611622002
H         0.33724054900235    5.10330488067047   29.37711301595271
C        -0.42106657931107    6.98082139596720   28.71185924438559
C        -0.32712824674023    7.65488351773703   30.05872247481470
H        -0.73374850948286    8.66864372344774   29.96285227746443
C         1.13360337683656    7.76870706870926   30.50035016502854
H         1.70785798195317    8.32788862137730   29.76426634264545
H         1.58054056418334    6.78312815901181   30.60705946272315
H         1.20216008218607    8.28326916990700   31.45676022585293
C        -1.15443660604685    6.90979304604821   31.10757513346766
H        -1.14091643057138    7.44892581967276   32.05281466188767
H        -0.75669430379402    5.91240775648735   31.27767094123930
H        -2.18646360862335    6.81488719256417   30.77669766007112
C        -0.91420272579267    7.66059150291019   27.61330222106853
H        -1.25288523958191    8.67881583679604   27.74881694582639
C        -0.99908229441281    7.08072054640469   26.35367881051636
C        -1.61194193061919    7.91300917717491   25.25105100802584
H        -1.56606423717472    7.33727101714419   24.30627593766578
C        -0.84816518793691    9.21945665189588   25.01582642023764
H        -1.39767197483365    9.84414762289147   24.31509355497630
H         0.13732943344069    9.01046886888540   24.59311930217875
H        -0.71821464952811    9.78432165449016   25.93691097421262
C        -3.07939872250582    8.20859485098632   25.57188963433374
H        -3.56107030069919    8.69701535044121   24.72647530630277
H        -3.16459789098123    8.86476514139865   26.43597633088750
H        -3.61678067278528    7.28891961541196   25.79320202946851
C        -2.37770868863011    4.43602348008360   24.53497705951382
H        -2.57968116893828    3.78688681318215   25.38788955397993
H        -2.60234039166761    3.89342999765544   23.61854946243440
H        -3.01635448101700    5.31502692530823   24.59767060699450

