61
CSD_code = GERVAB | q = 0 | S = 0 | Stoichiometry = C25H24N2O8PdS | MND = 4
Pd        9.36290828845530    8.61934046559742   13.41582024737147
S         8.02588004267412   10.58788959810079   12.78120006772926
O         7.29179762672087    7.62361680399479   15.22313621018793
O         7.88979021875012    9.59130870209253   16.15401005681368
O         8.53450992866710    5.89968353691484   13.20415752247721
O         8.82236613452454    5.15690282305368   15.30310002468639
O        12.21367529140020    7.88669305232661   14.36490714854252
O        11.63501764158483    5.87240222660965   13.51202104654684
O        11.14136705240979    8.95570139240386   17.09036010220195
O        10.60285418365921   10.27803736370410   15.35451604768873
N         8.98877569459017    8.10487844255377   11.27353053504644
N        10.24775874792720   10.60727636302581   10.08331493670745
C         9.51470966979619    7.04669152237337   10.71006881685750
H        10.32188213654243    6.56162108201956   11.24553585121899
C         9.07234558753365    6.53677754684006    9.47960413385903
H         9.54510723605957    5.66069980576545    9.06474044755017
C         8.03902119586072    7.16079433308258    8.83743475819445
H         7.66031191349429    6.79697496696469    7.89279832471968
C         6.38094593501999    8.99620825553371    8.81770557742148
H         5.99646609164288    8.63636486531823    7.87454995987510
C         5.84395754326264   10.10020404944766    9.41874219651369
H         5.02294258449658   10.63022100084778    8.96073992023655
C         6.36215325932410   10.56025779380906   10.63647812947434
H         5.94125325823933   11.43678942914825   11.10505275272563
C         7.40366308443472    9.91085077660962   11.24575082108255
C         7.44930247810945    8.30209744638576    9.41896885815435
C         7.97075686229366    8.75020161653269   10.66406150901875
C         9.39389734665006   11.60893385262011   12.08000633766005
H         8.94955968131744   12.31531519454406   11.38018992803148
H         9.81968938694241   12.11878998823522   12.94270010821895
C        10.38183279498454   10.72284509191040   11.39747143477532
C        11.34408027520620   10.01501985704365   12.13042333794890
H        11.49412204563168   10.19178618821471   13.19295345642161
C        12.18628447248022    9.15734574920703   11.43679764055222
H        12.96105437711673    8.62460381070130   11.96789969638392
C        12.02390323136040    9.01696858936139   10.06409754588731
H        12.65131491621897    8.35131471537272    9.49119192792767
C        11.04911842135281    9.77451036678746    9.43729825863349
H        10.89144885485309    9.72010319022374    8.36775052035008
C         9.60114558128581    8.18847672900428   15.41172494537410
C        10.00650636412885    7.08046515794103   14.65505029543872
C         8.16219294758844    8.40756596635287   15.55928089315433
C         6.51249399122814    9.92131904739666   16.22709878686037
H         6.45842036126724   10.87791763963833   16.74057357806148
H         5.96719539191527    9.15383828082219   16.78099863073523
H         6.09143864839846   10.00093566552037   15.22119942143715
C         9.02959185061937    6.00474911402581   14.30386826918810
C         7.82113169855237    4.17453949453733   15.07243402523507
H         7.76942515342095    3.57463044471578   15.97726544531978
H         8.08699387407030    3.55700596345713   14.21183393888032
H         6.86741327143256    4.66895874417858   14.87845745728699
C        11.37609024669120    7.02083400399145   14.18154949724501
C        12.94771388273240    5.71749323565399   12.99662083595678
H        13.18169486216956    4.65552271988131   13.04271361461705
H        13.65467069190677    6.29231842666837   13.59849650690680
H        12.98606268385044    6.06140429509751   11.95960304574331
C        10.55122762690200    9.13389545520717   16.06052652926770
C        11.43286912202446   11.29432331137764   15.90431687640218
H        11.31934924507988   12.17180845375789   15.27160231465987
H        12.47215194817515   10.95837354712259   15.91612260806053
H        11.12179506501795   11.51690244842644   16.92677628847778

