102
CSD_code = GERWIK | q = 1 | S = 0 | Stoichiometry = C40H58P3Pt(1+) | MND = 4
Pt        6.09924692028850   12.79617069680570   19.97644946333063
P         7.48909319289041   14.57735081815528   19.64216575293693
P         5.07589330228887   13.49768331136722   17.96267867788128
P         4.76330481924907   10.93553504185465   20.35491975401136
C         9.56676015474402   12.79274543750301   19.11487052056627
H        10.63321702549345   12.57782759540918   19.13562471760732
H         9.18913212528381   12.56849790851241   18.11774769945162
H         9.06349488718270   12.14630778471307   19.83278013808337
C         9.30235762886747   14.25089379592788   19.45808720527813
H         9.68140625008727   14.88978094092259   18.65078478608827
C         9.88665576603752   14.72165752354191   20.79223997207032
H         9.64479284690450   13.99862088589668   21.57519632433138
H        10.97103536903830   14.81594336714658   20.73273585319783
C         9.21951587931852   16.05703847660301   21.10659502100617
H         9.54651283950437   16.81525535778250   20.39189955407396
H         9.48049029818226   16.40759307721960   22.10523320379225
C         7.70638990341336   15.83215576618747   20.99850453486300
H         7.37893055299235   15.30160258671281   21.90294950619933
C         6.87153999211116   17.09749022947829   20.85816338254634
H         7.00589423354198   17.72441972315377   21.73720066786698
H         5.81412324998346   16.84994142051621   20.77578632698396
H         7.15512807867861   17.67555659979282   19.98181500294297
C         7.03163945160442   15.44595733061812   18.10617099053061
C         7.72931559971930   16.57105072346513   17.67673762932686
H         8.58418881115019   16.92375891330057   18.23562002383180
C         7.33932882246401   17.24137832432728   16.53183475377574
H         7.88809268916354   18.11068912882065   16.20355865799445
C         6.23652191613108   16.80486041874958   15.81393360523246
H         5.92002258777991   17.34029277367501   14.93199056997404
C         5.54172672176101   15.68257377989653   16.22591967414446
H         4.67589818935130   15.35711559639441   15.66830849543880
C         5.94319125659475   14.98235815030799   17.35907378768744
C         3.13594775462470   14.40034503359250   19.76073893089769
H         2.11920308595133   14.74178247797832   19.94635928349004
H         3.82493483100849   15.15807925035333   20.13666873024859
H         3.29615035978508   13.47421163448689   20.31835909186590
C         3.37092513541982   14.16983176112127   18.27480294830566
H         3.27874795806881   15.12397317501765   17.74088680795659
C         2.44818106735499   13.13521852818836   17.63095845603448
H         1.43215114083250   13.51783374029561   17.53149738513079
H         2.41880671174161   12.23855532661087   18.25608911385621
C         3.06000820366345   12.79423510141078   16.27564915032263
H         2.98766184977288   13.65725278224102   15.61092145364514
H         2.53915496867508   11.96369357161653   15.79732334863283
C         4.52845754323353   12.43556862999510   16.52931309035155
H         4.56070856342171   11.41752765395859   16.94836562781446
C         5.43119315810114   12.46979221874943   15.30396583267066
H         5.13880404110871   11.68674966824673   14.60677030192557
H         6.46877870182437   12.30557588882285   15.59065465183906
H         5.37063203064911   13.42189916375870   14.78409084291862
C         6.75805647214995   12.63926100274084   21.90327113126703
C         6.00792984173093   13.41741944351693   22.78298049925642
H         5.17700130311059   14.01246882560120   22.40888775274239
C         6.29719852335818   13.44755778997415   24.13765602829571
H         5.70225930910925   14.05669791685723   24.80254479929436
C         7.34996746559120   12.69766386403522   24.63409251373276
H         7.58266592188370   12.72023116261909   25.68768478421937
C         8.09764318324593   11.91608234688983   23.77234224301768
H         8.91675553402194   11.32330325406842   24.15210526566497
C         7.80248785834105   11.88386694933607   22.41654658238685
H         8.39909361451018   11.25127046210191   21.77341467298856
C         4.51125505870939    9.56434756509116   19.32476376859167
C         3.28093810117646    8.81843050452929   19.27149617311564
C         3.24819114864613    7.60095490833157   18.67376341870582
H         2.30620432173033    7.08130392193396   18.61097577347899
C         4.38409157217390    7.00997855142940   18.03710285536283
C         5.52950021536142    7.86244749239250   17.93509018319780
H         6.39234612615479    7.48152972784177   17.41676134369899
C         5.60497848173964    9.08514524388718   18.51792774597882
C         1.97035611181633    9.43799126948692   19.70674088386514
H         2.17308702040235   10.43961222550714   20.09737481909563
C         1.25614906822899    8.61416478421373   20.77902178479931
H         1.91183555157814    8.39434328862265   21.61825885886812
H         0.91318235518803    7.66796196723080   20.36915424174849
H         0.38858292242432    9.15418150403385   21.15055684157233
C         1.05252482191508    9.61016444214981   18.49011799690081
H         1.57157495513577   10.12317634368701   17.68322836633342
H         0.17515064245482   10.19135065846278   18.76445242451057
H         0.71625870204629    8.64765469146558   18.11515277148554
C         4.36800938307743    5.73237991138540   17.52802810668919
C         5.49207962001098    5.18915545104047   16.70787073594064
H         5.17463643516147    4.29846608487861   16.17193651029965
H         6.33002058828752    4.90931154867348   17.34955392915642
H         5.85370626907894    5.91627842551488   15.98373277859892
C         3.23426757995607    4.79234240181371   17.76739161285723
H         2.48874430383014    4.89413757694934   16.97524886411166
H         2.74465915899731    4.96915450359118   18.72100827499322
H         3.58927450417694    3.76432054995593   17.74771842550820
C         6.91517224185333    9.84215767181741   18.44864214304517
H         6.73895901618179   10.91423629590686   18.66493066215160
C         7.57733048679586    9.76257875347935   17.07240744800045
H         8.36897235795270   10.50460098387699   16.99859149071411
H         6.85379677649769    9.94485533626133   16.28163072861159
H         8.02986585823795    8.78846676282172   16.90753906835509
C         7.84967840339008    9.28011121008416   19.52374980147408
H         8.81657081141304    9.77539443391889   19.48698456605181
H         8.00327787378688    8.21480704341425   19.36708731489648
H         7.41403120548392    9.41914313552960   20.51267905558895
C         3.77475807308772   10.84618080558277   21.90426763502332
H         3.43891718230152    9.82888634150592   22.08105382873881
H         2.92171437695784   11.52403934653410   21.91622700507397
H         4.45080282251146   11.14320422640196   22.70856218892021

