68
CSD_code = GERXIL | q = 0 | S = 0 | Stoichiometry = C23H39IrO3P2 | MND = 4
Ir       -0.66593681105318    1.92245609471826    3.61545580395313
P         0.08396730951281    4.05194531189555    3.19177551049187
P        -1.86382650352245   -0.00492560410692    3.26461943518887
O        -0.59582243398964    4.50470904787094    1.78575774700199
O        -2.76814559592646    0.25377056493046    1.93815298684929
O         0.81850758351699    1.25379238388585    6.16106353562605
C        -1.65993731730074    2.36932652466759    1.90106147301271
C        -2.55817429428164    1.48064661920509    1.31186506384820
C        -3.24770902992012    1.76539702255706    0.14511474739100
H        -3.93242534034334    1.04093268831065   -0.26961263595546
C        -3.03964887509916    2.98907488162040   -0.47051015339832
H        -3.56927605384708    3.22686994574195   -1.38055501455613
C        -2.15785726674936    3.91009371203379    0.07161672708125
H        -1.98892234000063    4.86608160803571   -0.40083380139493
C        -1.48888549556143    3.58468140750129    1.23976245471178
C        -0.57932386635606    5.40802210498819    4.32125275288454
C        -2.09163973681913    5.16740509593225    4.28976316310405
H        -2.59680197700366    5.80618538014827    5.01288645991472
H        -2.30885427763961    4.12555469087443    4.53669762798194
H        -2.49916705622808    5.37968473935053    3.30310857948079
C        -0.26963680995452    6.81979710520897    3.83987335388897
H        -0.90607398576939    7.53578558725482    4.35959398048233
H        -0.45759304870827    6.90829076564960    2.77177869079528
H         0.76486056969561    7.08625164272925    4.04200417154707
C        -0.07789445812338    5.18236188732777    5.74339661301964
H        -0.62648037054481    5.81880774714911    6.43700543444193
H         0.97890107642614    5.41369440259579    5.83875036576524
H        -0.22996664876144    4.14370176013217    6.03367434795276
C         1.89372146245541    4.29657989632355    2.72738347740142
C         2.18693138480586    3.03814021888078    1.90339698382919
H         3.22557581984964    3.02414587156507    1.57573970552133
H         1.54993346073588    3.00253367847978    1.02014515318312
H         1.99954609901730    2.14578759090933    2.50443789507606
C         2.15853330228498    5.53071282830484    1.87143261617213
H         3.15727950540773    5.46674649887539    1.43989687626200
H         2.10411179761572    6.44495068106290    2.45478146204896
H         1.43986448907124    5.59363534076336    1.05766545677654
C         2.76506867617469    4.29226909524120    3.97759873506364
H         3.80770239873208    4.13189314349462    3.70570951820305
H         2.45848402094021    3.49252719279924    4.65023022715038
H         2.70090096047777    5.24035072129503    4.50604403927734
C        -3.24283886468815   -0.43586128621142    4.47402541039208
C        -3.80703295593696    0.94574536627167    4.82215638703480
H        -4.61771872220365    0.86136662582632    5.54463544840210
H        -4.19492790171983    1.43625957662168    3.92999022619145
H        -3.02222296342185    1.57238889820279    5.25111771159984
C        -2.66279370170102   -1.07243663625444    5.73119285936338
H        -3.39445032210952   -1.04131650919620    6.53772776157680
H        -1.77342934666426   -0.53250629139065    6.05310789570673
H        -2.39930505907251   -2.11337204290669    5.56058708532876
C        -4.35150312830122   -1.29629991327091    3.87721506543066
H        -5.21492025036557   -1.29020358967471    4.54199891727760
H        -4.03602788017246   -2.32707292003983    3.74833615318021
H        -4.66245397964291   -0.90392300049832    2.91204236723353
C        -0.88159713363520   -1.50931282230563    2.69302803450075
C        -0.05216198610944   -0.95052278129283    1.53282006472805
H         0.66759059431079   -1.69002247059033    1.18450159467274
H         0.49396045732509   -0.06205332272642    1.85837534564423
H        -0.69087075229826   -0.67488643912541    0.69571197735073
C         0.06557002402193   -1.95813974554134    3.80019570953691
H         0.79263367366362   -2.66612916552198    3.40397027137947
H        -0.46700503282194   -2.44325772172651    4.61261821090227
H         0.60294810561080   -1.10158119779424    4.20401295724123
C        -1.74771089661549   -2.66192296648497    2.20107063790340
H        -1.13990281937080   -3.36410029517647    1.63054425569625
H        -2.54134884771272   -2.29348140992544    1.55447681541254
H        -2.19033404106045   -3.20443713950968    3.03266104407158
C         0.24506340748105    1.51221132403668    5.17959822515079

