18
CSD_code = GESDAJ | q = 0 | S = 0 | Stoichiometry = C7H4ClHgNO3S | MND = 2
Hg        5.79370022817896   -0.24363205288511   -0.48177265463421
Cl        7.52736493201431   -1.53888048788751   -1.01850759976809
S         3.74436355759591    2.04668773410720    1.59965585411040
O         3.31534166933169    1.19534570793877    2.66233861657317
O         4.67319055764940    3.08741808027863    1.90340375383391
O         3.93758676099869    0.54721302783970   -1.79057971995495
N         4.35765296981305    1.09921212205114    0.33375981937298
C         2.36502954248636    2.64371583025239    0.62160487537605
C         1.34634580106032    3.50517615652985    0.95162722648285
C         0.39742463691403    3.79307458355239   -0.02514514958900
C         0.48169766233634    3.22678830081991   -1.28924392896260
C         1.51346426581744    2.35805619195922   -1.61420031419375
C         2.45774276052839    2.07191006396836   -0.63935210693649
C         3.62497894293784    1.18150653545925   -0.77000533942127
H         1.29123012506430    3.93917419377150    1.93697319362019
H        -0.41416926470393    4.46621267585936    0.20583339119404
H        -0.26602790878920    3.46543815977686   -2.03034261659666
H         1.59438276076772    1.90878317660977   -2.59144730051249

