47
CSD_code = GESFIV | q = 0 | S = 0 | Stoichiometry = C19H21Cl2N2OPPd | MND = 4
Pd        7.59121678540263    2.48050357137384    2.97569785031017
Cl        8.97842818408915    0.76342382963282    3.35290013188823
Cl        9.28384504931200    3.97323428562242    3.09786138783438
P         5.84037170098710    1.10231919393383    3.19551698431933
O         4.36467645626842    1.82221237932298    3.33347194021507
N         6.33585576193246    3.99327454295815    2.41901669774923
N         5.31939727595435    4.48806924410293    3.12951545691739
C         6.34130426965731    4.57855497632870    1.23438880398566
C         5.28251235201560    5.49914860245965    1.18604587861656
H         5.02311074899191    6.14004216215074    0.36885259879520
C         4.64573853962076    5.41415007375676    2.40713449048049
C         7.35892286238337    4.21007231302660    0.21514725005875
H         6.91282142970328    4.15009499501992   -0.77518275409330
H         7.80765925897026    3.23735238955267    0.48336037193675
H         8.15545791554399    4.95436646466979    0.19906371253736
C         3.46736468692466    6.14818031367839    2.93237246505120
H         3.14844552656352    6.88800440624914    2.20420808495841
H         3.71314369908832    6.66002174420506    3.86247753094144
H         2.63627781925210    5.47003744026229    3.12451109527272
C         5.04273522892533    3.94172159084918    4.42684918630524
H         4.62383277065438    4.71028682721854    5.08000637300517
H         6.00981729025861    3.60044882284315    4.83810400355420
C         4.06246131642968    2.75472114688937    4.34999107001053
H         4.03799505880021    2.25976615647002    5.32911816196907
H         3.05634587382469    3.11436263933693    4.10874058356158
C         5.94998486449338    0.16604857288280    4.76213227519744
C         5.25127757118647   -1.01073662962524    4.99497880766745
H         4.64121322476725   -1.43857348691656    4.21227687098472
C         5.35708556514305   -1.63784659487832    6.22436899225835
H         4.82254865386661   -2.55895383314233    6.40506843265220
C         6.15392315696032   -1.09278384494197    7.21811751803061
H         6.23896610567491   -1.59066793867163    8.17263555574936
C         6.85245314140493    0.08197627615671    6.98713077735990
H         7.48284609146661    0.49823394973158    7.75848914920328
C         6.75166494806882    0.71216738005090    5.76039983799256
H         7.33146034615800    1.61720576169938    5.55411940996601
C         5.41898924050486   -0.08213451246738    1.90180635582150
C         4.14365753829584   -0.60373880160343    1.71576040159742
H         3.33532014506381   -0.28903244121515    2.35889109285517
C         3.91929666588643   -1.50793536163402    0.69323242569545
H         2.93013335057843   -1.91661695376176    0.54520628962280
C         4.95842245704647   -1.89117034823930   -0.14031339109543
H         4.77601227981439   -2.60038389738824   -0.93419382261307
C         6.22671280881203   -1.36058822889348    0.03609383091620
H         7.03223910632487   -1.65293345381081   -0.62059575083855
C         6.45737987918778   -0.45135370932897    1.05214456322917
H         7.44217499773377   -0.01915201590291    1.20468102156547

