35
CSD_code = GESJIA | q = 0 | S = 0 | Stoichiometry = C15H12FeN2O4S | MND = 6
Fe        4.84876418884104    8.14659093378502    3.44345579136651
S         4.03940163393462    9.39861564332009    1.58232445469669
O         6.24605097103451   10.61019578247738    4.06312221377208
O         5.30359832344027    7.25629702580009    6.15778946498485
O         6.37157106807579    6.93085335542898    2.32524436479718
O         3.09074988888501    9.64159366535376    5.03815803300132
N         3.78536121032715    6.63329571292213    2.85933251476498
N         6.30752455737119    8.67018087109409    0.40893884198978
C         5.72160236466638    9.62549996572567    3.82814551238250
C         5.16346082075091    7.53886881835800    5.05679592988790
C         5.80969101973366    5.70665305244795    1.91869287699916
H         6.29166559261089    4.91712114605194    2.51308308794856
H         6.02227414836362    5.51205286769975    0.85941165647654
C         4.31986587161042    5.63060433608923    2.15816480273924
C         3.54684732196523    4.57070283942315    1.70770123566548
H         4.00426541201390    3.77365636232011    1.14324814911717
C         2.19158628818975    4.55752477935925    1.99726658349050
H         1.56922435816077    3.74266425944573    1.66129526073819
C         1.64641613493412    5.60881673921706    2.71768659143733
H         0.59448027561661    5.63632944584932    2.95297698643574
C         2.47509235228137    6.64146713609815    3.12843499864576
C         2.02475182318785    7.84846434108588    3.87572441559228
H         1.42234701345848    7.59554284357973    4.75165999924704
H         1.41338912581771    8.48265135466854    3.22636390262415
C         3.22962327372039    8.71549898759260    4.29086584873716
C         5.27269991158185    9.51797969572809    0.38419353750720
C         7.25499817200071    8.77675883745406   -0.51645359482686
H         8.06747643098177    8.06671280182215   -0.42459225456586
C         7.22633760445163    9.71116309383991   -1.52759934158061
H         8.01939586302499    9.76178588925379   -2.25579256908685
C         6.13989487784760   10.58763196896308   -1.57623658619730
H         6.07776953687023   11.33525998567759   -2.35359413035480
C         5.15791298363800   10.49372348525329   -0.62144055155597
H         4.30370482752989   11.15100642221860   -0.60947284971505
H         6.40550475308096    7.58143555459350    1.53000482283892

