47
CSD_code = GESKAQ | q = 0 | S = 0 | Stoichiometry = C21H19CrO5P | MND = 9
Cr       -1.25784484744367    3.21673061339041   14.75980424625304
P        -3.35981959620929    2.62190267751516   13.39987327593258
O        -4.51939978216215    2.28135925023126   15.78274202686385
O         0.09713038559123    0.53123077969753   13.07247941148807
O         1.67510966081872    3.66274640971562   15.00058981640937
O        -1.19995229164835    5.96953974027096   13.63084338980670
O        -1.24677483701682    4.79791081971391   17.27985525794731
C        -1.77472685430085    2.03437577704720   12.82199167451179
C        -0.98733784970504    1.18157509520542   13.58642024140370
C        -1.19973495221539    0.90423202356484   14.98483631349699
C        -0.29776045697897   -0.00896569130901   15.60746816776578
C        -0.40673561296998   -0.33510362962957   16.91411409175752
C        -1.36517491679945    0.30473997579246   17.74663212566579
C        -1.37162519211760    0.05835924050860   19.12788256092830
C        -2.22559068890752    0.73284912121827   19.96161364441340
C        -3.08114426138953    1.69308094575397   19.42582525262426
C        -3.11184063392430    1.93040768527364   18.07221320364678
C        -2.28380230799418    1.22424471414571   17.18483207507944
C        -2.28116397129584    1.44726831395696   15.74453422538270
C        -3.37190128622554    2.07881308106773   15.06636275381623
C        -1.43630848062373    2.39131559959722   11.36869168217537
C         0.54719855479781    3.44730794715518   14.88928702382234
C        -0.04826728006599    3.04856758333657   11.26095058433181
C        -1.24401283761824    4.88210431049699   14.02617416275497
C        -1.28535371929234    4.16263133530783   16.31677300671813
C        -2.43475866383100    3.42646886231050   10.83406117575383
C        -1.55534704428447    1.14980164988772   10.46546008098790
C        -5.56343032949872    2.96857638867945   15.14859044692051
H         0.24502009321373    0.80162063735979   12.15909025748924
H         0.46835053489075   -0.45443913897573   14.99293299658852
H         0.26359988019954   -1.05532385256016   17.35832596776115
H        -0.66988590725612   -0.66121238449754   19.52452682349555
H        -2.22087719201665    0.54198871652979   21.02432720604809
H        -3.72248568548384    2.26438285458203   20.08002885931657
H        -3.76644443042642    2.70044872564132   17.70373679823709
H         0.77580833178804    2.44456922292002   11.63253978254120
H         0.16102404080467    3.28138081020956   10.21854869325469
H        -0.04521050371023    3.97827148333462   11.82871435188546
H        -2.44860267518088    4.31234070334952   11.46837688810527
H        -2.14387717018408    3.73351752982974    9.83174041001282
H        -3.44193942944185    3.01394531989324   10.77795098364861
H        -2.55587951380250    0.72852727061005   10.55587894713390
H        -1.40033680512060    1.43545063116966    9.42699627325009
H        -0.84396278284657    0.36073516765229   10.70001661054393
H        -5.91018107099782    2.43215048335720   14.25535221435675
H        -6.37228279926024    3.02595907346605   15.87532432933039
H        -5.25386682186810    3.98091612621211   14.85748968835813

