36
CSD_code = GESLAU | q = 0 | S = 0 | Stoichiometry = C14H13FeNO6S | MND = 6
Fe        6.00648633358864    8.16896341133254    7.67729545595598
S         3.62004637456335    7.68426938510709    7.67071566583472
O         6.52431086143655    5.91603710975366    5.94293558834147
O         8.85128988326058    8.48864933985025    7.31129216722148
O         6.22331951084994    9.08856470343017    5.02991015461799
O         7.99244617675363    8.94357152958192   10.26526127390015
O         8.57497348296795   10.93806758249965   11.09999486033859
O         5.29176477332682    6.81826668307209    9.37035068501718
N         5.70044000639231    9.93765513987417    8.69166458309952
C         6.28515898594032    6.78310558551101    6.64286847898534
C         7.73788977713914    8.37618207753526    7.55749836695939
C         5.83620047514760    9.28705144496863    6.14584468185370
C         4.99201140654232   10.52588792376587    6.49024961699591
H         5.22691313193959   11.35435549007968    5.81799011841503
H         3.95439365996444   10.22750189706318    6.30701401358972
C         5.17058001727844   10.89545096893685    7.92063174247678
C         4.83624100391118   12.14466229772314    8.42676607386156
H         4.41230102245470   12.89013333171128    7.77290128060444
C         5.05479830112951   12.40658881571090    9.76702601563835
H         4.80125596221815   13.36586958634651   10.19070138454259
C         5.63011643113392   11.42034309503458   10.55246675263166
H         5.85828066913058   11.59979143127483   11.58996901420505
C         5.95053325595446   10.19922456202053    9.97883679740525
C         6.66920756206427    9.13667448354363   10.76773489053597
H         6.72058869126857    9.42408182158848   11.82250553287804
H         6.18865328725749    8.16356229199607   10.64905010501523
C         8.87367269146058    9.92566110618800   10.52292928638893
C        10.24057910843406    9.57678453554209   10.01439101199260
H        10.95926266707759   10.31316343542962   10.36187905954406
H        10.22533059263642    9.56218675549493    8.92657658342298
H        10.51523157459744    8.58240686005183   10.35720478355894
C         4.09418827534134    6.78632943176970    9.04172644481519
C         3.06946565532114    5.99512019517230    9.79362501162053
H         2.80109861773607    5.11851849253171    9.20486386685595
H         2.16892001700826    6.58728129974071    9.93737870141671
H         3.47184975676903    5.67113589875719   10.75084994946333

