49
CSD_code = GESNAT | q = 0 | S = 0 | Stoichiometry = C15H29IN2NiO | MND = 5
I         3.60126743557067    0.95734949985415    1.57995411992609
Ni        5.73814142139900    0.35427624070540    2.54287886826887
O        10.52985129231570    1.70940390510316    4.15873934235258
N        10.72558574202906    1.79160412628982    1.91424914431940
N         5.02237713440264   -1.04872492194431    3.94025121729156
C         6.75024411492818    1.48111711158474    1.33002060889089
C         7.45757003264251    1.36334450098626    2.54873136623712
C         7.69882251537276    0.07613270433985    2.99805752526130
C         7.71218022665627    2.57140545872375    3.41395232442410
C         9.04589148935843    3.16366353829731    3.03460973857627
C        10.16920695788000    2.16733506156360    3.08768180098619
C         9.23891003652660    4.45350020154644    2.81523454770880
C        11.79615568740551    0.80991962300884    1.95143549129124
C        11.26056706121516   -0.61780925300771    1.88912077207794
C        10.27014230282117    2.22669913144971    0.61237398974304
C        11.18658544868741    3.27468722363065   -0.01596242188106
C         4.17421778820080   -0.43853653629426    4.97341805753647
C         4.79640859996191    0.86987269921340    5.44087337827462
C         4.39058224665077   -2.21311214370667    3.30478102711485
C         5.23121430425578   -2.67134683575029    2.12097936082457
H         5.87046487763308   -1.38312979164319    4.40689684000603
H         6.94554310518072    0.76540503183875    0.52489781213653
H         6.46049428382093    2.46781334021593    0.98063618119141
H         8.13988186369848   -0.07782709518156    3.97568617339684
H         7.87198598966931   -0.72752186563193    2.28379338993442
H         7.76962338577142    2.27540355045106    4.46628821326164
H         6.92651834560031    3.32236370253154    3.29745590045196
H        10.21535740001881    4.85432316021700    2.60344947344600
H         8.42981240941912    5.16429817142922    2.86271086747845
H        12.47319285233095    1.00007816642525    1.11659024546503
H        12.33680105201721    0.95145572094979    2.89009668681176
H        10.63204230771722   -0.80945988719001    2.75476299136189
H        10.67591081599512   -0.77623195656657    0.98462257752557
H        12.08586432631537   -1.32444996513842    1.89568005679986
H         9.26394859183430    2.63908623319945    0.71099994999363
H        10.21807126207661    1.35070725878195   -0.04302917786057
H        12.19365400643767    2.88658079139328   -0.14577606841617
H        11.23731914089465    4.15962976707702    0.61166043932346
H        10.79955262052775    3.56086707109477   -0.99018406949438
H         3.19693226034289   -0.23346849869372    4.52840159706133
H         4.03354409267307   -1.12702870167573    5.81829587722567
H         5.73377662289949    0.69680793331630    5.96767292283371
H         4.98759994553019    1.50553594593519    4.56406658507543
H         4.11848806100501    1.40213237062610    6.10165334558683
H         3.40405573255170   -1.90676230527966    2.94749325209891
H         4.25964018921444   -3.02944749261314    4.02851268106816
H         5.42750862830056   -1.80495324907522    1.47053753101723
H         6.17950548956161   -3.09525870134928    2.44828770103823
H         4.69828850267851   -3.41623004103477    1.53745976496145

