87
CSD_code = GESPUQ | q = 0 | S = 0 | Stoichiometry = C46H32N2O6Pd | MND = 4
Pd       10.47896964680362    0.00237192011455   19.32228952999710
O         9.57997193577216    1.72001783388676   19.98333152289379
O         6.52937790778972    1.24153986820428   22.66968254212856
O         5.97160835180123   -0.71090545413537   21.82572336145803
N         8.64347460891100   -0.59496055471405   18.76548758742675
C         8.57533632089144    1.55086037518656   20.73403044377856
C         8.25267948271901    2.60505152570129   21.69841408331071
C         8.95132019110159    3.81400153940558   21.71843573641776
C         8.64278173375244    4.78436141810378   22.64436677350344
C         7.63107555931894    4.55948497204119   23.57282854772512
C         6.92827582444309    3.37348138344340   23.56911064097922
C         7.23271143615412    2.39069145771912   22.62783208643669
C         6.67386351857356    0.26785484123809   21.70835441743439
C         7.66765339009862    0.47134711500021   20.68006839646069
C         7.61927976570093   -0.39630551888919   19.52498764487017
C         6.28261102973830   -0.93303098210658   19.16685562080433
C         6.06839267180255   -2.30504081535096   19.09997863158202
C         4.81962237024587   -2.79512029929278   18.76745333547930
C         3.78312912519708   -1.92304859906495   18.48013071955614
C         3.99512131244812   -0.55600866554097   18.53584091050063
C         5.23799572466997   -0.06006725241112   18.88295209044520
C         8.50172980555028   -1.18540577643129   17.44715093579572
C         9.57394173975274   -0.67251312897659   16.50775256097254
C        10.05218745407297    0.64076593482124   16.60256738387109
C        11.08865090623287    1.06260903896818   15.78046172261198
C        11.62878313494844    0.20454292916905   14.83532948075502
C        11.11532629248525   -1.07260910232545   14.69742010583537
C        10.10356554193419   -1.51090650416137   15.53663537520780
H         8.59723619338653   -2.27597859221331   17.52076124921032
H         4.65345306397288   -3.86169536270607   18.73589249226221
H         6.87366172584550   -2.98169458303255   19.34436909638657
H        11.51441125519223   -1.74138137650311   13.94916344919086
H         9.56726279976750    1.36526708671039   17.26095452573599
H         9.73116574399659    3.95898113668954   20.98649453171676
H         5.40537032454441    1.00670394694813   18.93435161409911
H         7.50597681519492   -0.96109147067333   17.03552627476209
H        12.44117500148808    0.53516999795743   14.20630971082019
H         9.73002030339316   -2.52036105497423   15.43939106599627
H        11.46675956769849    2.07065593219159   15.86942648589749
H         9.18385856935459    5.71826132158436   22.65334539630416
H         6.14033440432714    3.18068054967745   24.27954006044893
H         7.39180742777349    5.31907168155833   24.30171867299697
H         3.18783364544368    0.12727561597060   18.31730979202871
H         2.80834494342609   -2.30813623593659   18.22029431184840
O        11.37561732343346   -1.71683841872076   18.66357993094971
O        14.43214696317208   -1.25059626521992   15.98222195227203
O        14.99559133962294    0.70026228746116   16.82580534956412
N        12.31529039175548    0.59926729559858   19.87890140921860
C        12.38206881863314   -1.55142857632891   17.91452003267853
C        12.70192070482459   -2.60707735023118   16.95079695851067
C        11.99771731335245   -3.81277643079496   16.92909582266440
C        12.30209328113669   -4.78342985699792   16.00209437453434
C        13.31537382355543   -4.56225114196985   15.07444701414069
C        14.02404813269473   -3.37975885050148   15.08024104107572
C        13.72361063265870   -2.39659792121495   16.02244179422188
C        14.28947477560904   -0.27578461005933   16.94267076390529
C        13.29306936522440   -0.47482973194263   17.96934806024649
C        13.34086328508732    0.39544113805751   19.12254679022068
C        14.67785836303352    0.93057685327581   19.48211519503213
C        14.89448446231697    2.30248110205168   19.54384623742267
C        16.14325530512120    2.79171278372463   19.87756123909427
C        17.17733945772735    1.91898449847252   20.17149634377427
C        16.96290580201880    0.55212294409159   20.12107816943254
C        15.72009458130194    0.05693985244341   19.77256133714226
C        12.45532316326321    1.19321645959802   21.19579048763729
C        11.38517214006971    0.67874413222739   22.13680342775824
C        10.90676434288561   -0.63439601808955   22.04116762360025
C         9.87166708878677   -1.05738969224185   22.86440002216252
C         9.33374823077281   -0.20089682984236   23.81216924552568
C         9.84778856173385    1.07592857964855   23.95115892867793
C        10.85757711578486    1.51567156758853   23.11031216364970
H        12.35559127578095    2.28325490354983   21.11934937558854
H        16.31127583922442    3.85811060139527   19.90498031247193
H        14.09106014354157    2.97954690009479   19.29459224523359
H         9.45059960564397    1.74332174182242   24.70165908842554
H        11.39030914119038   -1.35812342997386   21.38090220748492
H        11.21669177934651   -3.95498654009352   17.66032943387800
H        15.55102631289958   -1.00975019837639   19.72529447484304
H        13.45191783518174    0.97379168329596   21.60800670591804
H         8.52282427631943   -0.53260182790633   24.44250768562983
H        11.23116016389924    2.52505514660924   23.20828450966571
H         9.49294710092570   -2.06508325048730   22.77402240300167
H        11.75637657556646   -5.71460946783213   15.99146040649463
H        14.81331741497465   -3.18982097305084   14.37051968184422
H        13.55110795835653   -5.32190571000702   14.34447333331260
H        17.76831448861775   -0.13167096718486   20.34490456607661
H        18.15210675520033    2.30338549518514   20.43242093711570

