59
CSD_code = GESQON | q = 1 | S = 0 | Stoichiometry = C22H30N4O2Re(1+) | MND = 6
Re       -0.37528143527944    5.31273630724613    3.70930605440887
O         0.49748158820832    5.69254677928358    5.09704615207082
O        -1.27635246895511    5.97495499816065    2.45172470308252
N         1.39783101457886    5.40321549985788    2.38461870126222
N        -0.67820787861851    3.40195566419233    2.12891065183012
N         0.03880721606198    3.09099898023599    4.77558097579216
N        -2.14299928714818    4.98122304652407    5.00299755494643
C         2.44282048773828    7.17865510295607    3.66842789713951
H         1.62337932695942    7.86095971603417    3.43858475445829
H         3.37680652837666    7.72703277643404    3.73312751274052
H         2.20419004639714    6.73658974855019    4.63936742233711
C         2.50412537443349    6.11862450832338    2.63376264477090
C         3.67637680493247    5.89398769333971    1.91193455636994
H         4.55669924485296    6.47109954579032    2.14334712667477
C         3.69452874558027    4.95464820395020    0.90182996360475
H         4.59358447816595    4.76340161101832    0.33760730197650
C         2.51718513331935    4.28250274037992    0.60404136918770
H         2.47638155978162    3.57845696331064   -0.21157887116309
C         1.38360583365465    4.53802894287227    1.35670609045210
C         0.06407918951075    3.92097225974910    0.97425113810696
H        -0.53590773113577    4.72774324756620    0.53905770048756
H         0.21813880410838    3.14728973305142    0.21411900257575
C        -2.08471822374856    3.14600442759791    1.79910563173138
H        -2.49040330968414    3.95997756602335    1.20163138197688
H        -2.65491822983861    3.09732663796803    2.73005603052378
C        -2.10175869722772    1.78909108357719    1.08907487377901
H        -1.97445857256576    1.91736058804707    0.01498716135570
H        -3.04177566995154    1.26753717204946    1.25110802191104
C        -0.90776872856260    1.03929568985140    1.70074804485553
H        -0.26185932775518    0.62723548967467    0.92714344565021
H        -1.23577243075786    0.21262122656026    2.32836263348684
C        -0.15782912712791    2.09489174033897    2.54348580957986
H         0.92063083327459    2.06562315285404    2.36645997048313
C        -0.41106124700063    1.89934195402099    4.04842999389817
H        -1.48496968890151    1.76754827806291    4.20523846383301
C         0.40201840080934    0.71170492803946    4.61040033675808
H        -0.21600767979917    0.08310811386455    5.24941007173061
H         0.77601343439842    0.08815460090587    3.80030547328907
C         1.55228290032155    1.35254611055873    5.40280311999709
H         2.51998901047176    0.93811721986544    5.13138607900328
H         1.41783710282586    1.20750120759436    6.47390319238079
C         1.45876411060478    2.83862075475250    5.04509085507595
H         1.82260715408409    3.50297800529805    5.82633278377002
H         2.02614077537199    3.04895977088717    4.13512922334844
C        -0.72529958995558    3.26977368429359    6.01568984756546
H        -0.83412996702505    2.32580459810153    6.56085061780977
H        -0.16771430250313    3.97547896373676    6.64123493432361
C        -2.07789752089163    3.89063451975052    5.78507635245319
C        -3.19306931907542    3.39659397309332    6.44015829030578
H        -3.11111826988841    2.51569938253523    7.05650207592363
C        -4.40619496726614    4.05777356366842    6.30659793912148
H        -5.29146857185135    3.68492958265580    6.79702255430266
C        -4.44271236807935    5.21775616683281    5.56089269939245
H        -5.35376002417050    5.78655621697186    5.47117002394420
C        -3.28711975546309    5.67628130691008    4.92834992419814
C        -3.28688026535758    6.96133506849000    4.18907730782280
H        -2.50275437122100    7.60685648559234    4.58679599564093
H        -4.24847828947091    7.45944256189079    4.25519212973594
H        -3.03105778254691    6.78651413826095    3.14072630592931

