55
CSD_code = GESRII | q = 1 | S = 0 | Stoichiometry = C20H28N4O2Re(1+) | MND = 6
Re        1.77790308559726    0.38159503324243    2.91128715898035
O         1.01496934289010   -0.22954640748417    1.54068382342587
O         2.68552914977006   -0.09711254260534    4.24609118086576
N         3.55317930496641    0.77488766838910    1.77002397432491
N         1.22624786646127    2.44110472939663    1.58351279627971
N         1.78584586410510    2.42399035012371    4.37113459773701
N        -0.02683349156774    0.22045489169123    4.06312615111517
C         4.74028996505541    0.24879134977918    2.07235794543685
H         4.73606044222526   -0.48569103656374    2.86697816652051
C         5.90486407631922    0.60905974687947    1.42149788620875
H         6.83977088710486    0.14720724629172    1.69222031477494
C         5.83839253730807    1.56699968117483    0.42065284272860
H         6.72470077298991    1.87841241378676   -0.10906285919103
C         4.60486152745187    2.11771026945992    0.11275129807538
H         4.51527667691879    2.86274004207852   -0.66221501219651
C         3.47302181209711    1.69633191196911    0.79830781660697
C         2.10588994554062    2.20793778269005    0.42684457974188
H         2.19422945264605    3.10678908223188   -0.19573386497496
H         1.63865447768885    1.41978536951713   -0.17417142636267
C         1.54772059324775    3.70517292398994    2.27304662179297
H         2.63722794585052    3.82176242872708    2.22791024143044
C         0.90404690067765    4.94110007108668    1.62563876872270
H         1.23084549278913    5.02203011981825    0.58721353304765
H        -0.18154803047121    4.84448190195589    1.63400065461282
C         1.26335657189984    6.21607144360111    2.37960530093586
H         2.34392158266195    6.37190306155502    2.36898642704923
H         0.79795464082473    7.06954802462788    1.88660788826063
C         0.77202566120357    6.10541344989316    3.81656389258234
H        -0.31219032842387    5.97818073530640    3.82809659366143
H         1.00727122476232    7.01650505989240    4.36674435953211
C         1.45242482241089    4.91997242395791    4.49107767749246
H         1.12373386336485    4.84790603834966    5.52955052130919
H         2.52629618432011    5.10646269674992    4.48629061487067
C         1.14338173066738    3.60376776734481    3.76082506542492
H         0.06115247487026    3.43218492473926    3.80417113906852
C         1.00594114364734    1.89837813878818    5.50325669938914
H         0.68895865111848    2.70319013983289    6.17785021438351
H         1.66778688533401    1.22586069897800    6.06038997676644
C        -0.18150395842426    1.06793994032470    5.09145668947602
C        -1.03505719931089   -0.58294473920827    3.72358399329049
H        -0.84591170312660   -1.23931797413987    2.88442239934785
C        -1.37576944476481    1.12990963877981    5.79761600704885
H        -1.47754489928478    1.82253790133434    6.61837985047965
C        -2.42211552350582    0.29034348494643    5.45136555899886
H        -3.35208310027012    0.32085764507471    5.99669222099155
C        -2.24450023339864   -0.58731147741733    4.39204580130771
H        -3.02591578312489   -1.26459516219335    4.08997531182590
C        -0.17294936884177    2.34911956829008    1.15399641172912
H        -0.83862862107938    2.58511832200042    1.98142844317508
H        -0.36841672190253    1.32323200300324    0.84568179356763
H        -0.38899293052867    3.01585014892691    0.31490864568039
C         3.16487181548304    2.66969117479124    4.80598527792169
H         3.73981654902040    3.12222878285199    4.00106289547122
H         3.62162286755136    1.71174123157633    5.04995198415299
H         3.20801654918441    3.31445987981638    5.68783315510396

