73
CSD_code = GESVIM | q = 0 | S = 0 | Stoichiometry = C29H34N2O7Ru | MND = 6
Ru       24.88604054632489    5.54608522500618   11.55429550760964
O        25.02626427346328    3.94454551438325   10.25916491077236
O        26.39892871477772    6.55038744209412   10.61329764982814
O        23.60926513808770    6.27050107154648   10.06361237418442
O        23.30916610090387    4.56276294589177   12.49779376523062
O        28.06514363832975    7.78328062934392   13.56458644102869
O        19.57008620486597    9.11022442965623   12.42041407801332
O        26.45233197218961   -0.67204878396152   12.58146208390412
N        24.73579779185698    7.09756645165874   12.67580698564572
N        26.26268832856325    4.87577088370785   12.72418520199588
C        25.62379917613125    9.10121828919516   13.75784759333554
H        25.35899102203461    9.81733112731623   12.98172047183270
H        26.57503892742990    9.39056010766800   14.19671978894528
H        24.84017174722548    9.12128197833107   14.51466979124258
C        25.74960921470087    7.72573275179474   13.17094986388961
C        27.08270476865984    7.09989404482792   13.26650276539406
C        27.20325311017587    5.63436132908417   13.20167125827506
C        28.46404104522190    5.08515896336598   13.80750613240761
H        28.29484205178500    4.09956639340812   14.23581442257714
H        28.82401288253654    5.77422365356344   14.56819438464097
H        29.24074165554828    5.00874519683722   13.04725249472456
C        23.44799189228366    7.66111932293227   12.68307227748291
C        23.07340610777563    8.58373565994940   11.70544748355979
H        23.80209696194834    8.90183575889500   10.97471261720313
C        21.77657466183199    9.04233032794588   11.65173180032374
H        21.46735158667718    9.74475124261180   10.89398287220490
C        20.82582775118623    8.60310872742810   12.57574457451584
C        21.20599929591857    7.70403957010694   13.56538787109572
H        20.49986492959667    7.35173118302864   14.30043621779483
C        22.50932970866991    7.23943355855063   13.61671525391195
H        22.80277675354891    6.52936275432684   14.37704869790601
C        26.38468974060505    3.47649357942551   12.71767300729064
C        27.36185509615929    2.84143378031213   11.95777969102159
H        28.06665139546744    3.43475438081913   11.39327357211045
C        27.41091932376944    1.46069156462897   11.87890269768874
H        28.17026852456551    1.00291461300203   11.26467823403667
C        26.49243992384107    0.68931061742196   12.58176453311570
C        25.52360147328347    1.32743569340305   13.36026291359616
H        24.81997762061262    0.71494205997083   13.90135727102117
C        25.46442288661634    2.70071960870609   13.42387985811053
H        24.70595101620174    3.19503050254551   14.01164462942917
C        25.88356244301078    2.61178744894124    8.51028040391209
H        25.13898629476356    1.92295871161246    8.90060972785892
H        26.86003769332734    2.13377602385024    8.51040985147613
H        25.62839899333872    2.87249659849663    7.48514088164420
C        25.90939887079829    3.86218269872483    9.37057872680344
C        26.92031567324759    4.79365161897204    9.09165069662692
H        27.60199115436884    4.54051581792451    8.29252955004050
C        27.09895011736275    6.04022475464852    9.69636114057881
C        28.24467678744379    6.89848716768176    9.19504279510424
H        27.94860577908363    7.39266739653299    8.27124696668288
H        29.12564168637009    6.29456282030398    8.99619398012396
H        28.47583266692330    7.65801541385958    9.93792290703247
C        21.63128844503109    6.52480040268933    8.80372850943087
H        20.86119460748422    7.19536355454042    9.17969877141091
H        21.15256499818758    5.73617553256226    8.22874360609704
H        22.31023891326798    7.08219902434280    8.16389914572915
C        22.40161009898651    5.93661955597197    9.97124963389291
C        21.68174808676265    5.11038680840107   10.83868831867408
H        20.64460418120950    4.93862577276440   10.59076678681593
C        22.15574653915231    4.49773196392451   12.00131923578866
C        21.14672948444875    3.67426090642189   12.78314922362255
H        21.60967816827754    3.29023312171332   13.68801773378077
H        20.80324563236500    2.84014470690782   12.17602756571612
H        20.28675802075473    4.28605359897886   13.04492971320096
C        18.56419827227579    8.69742058638533   13.31261108551167
H        17.65965857552340    9.21465620875687   12.99650347709667
H        18.79939546457051    8.97992931568861   14.34393164113737
H        18.39914881195264    7.61626749424928   13.26028503583324
C        27.38690302716778   -1.37214692740967   11.79736464619764
H        27.28874925323422   -1.12246043901655   10.73588492028906
H        27.15980993210504   -2.42748688126756   11.94036979122323
H        28.41371636585022   -1.17692492888038   12.12369949179532

