72
CSD_code = GESVOQ | q = 0 | S = 0 | Stoichiometry = C34H24N4NiO7S2 | MND = 6
C        -1.85685148513491   11.31740652973410   12.67769119555565
H        -2.54695496636370   11.31256884756699   13.51170805721198
C        -2.15200288833419   12.04548868284019   11.51961449630449
H        -3.08378788461760   12.58403951613546   11.44574627531788
C        -1.23053743805022   12.07597631302811   10.50180880117375
H        -1.40659700497252   12.64902731615003    9.60315914211490
C        -0.03314611532705   11.35125152908604   10.63439912063885
C         0.99739011140078   11.36935294097110    9.65136829917875
H         0.85165346223715   11.95942359977455    8.75953037862045
C         2.14606156882624   10.67296847518014    9.83062734669247
H         2.94460347138135   10.69016149439100    9.09914956923898
C         2.31989532198574    9.84971132985103   10.98168516225213
C         3.48165883604938    9.08062162063513   11.16062991833303
H         4.26094755252609    9.15718462380186   10.40791348734790
C         3.56228904577473    8.26257477088526   12.26256637461590
H         4.42764641797282    7.64294925508036   12.43433455158099
C         2.50621121133036    8.22751318909109   13.17690739545968
H         2.55609395730290    7.59005692972448   14.05003524252188
C         1.30962596855334    9.78152146095004   11.96836012800105
C         0.13677457814690   10.59876179295114   11.81975145577029
C         2.12680087000160   10.91611956334251   15.31432472903789
H         2.72523989841156   10.65098506834353   14.45520823399432
C         2.61709404672927   11.85015463712623   16.22860902027620
H         3.58700846191759   12.28963661992352   16.05929853222649
C         1.86642660609882   12.19773451572094   17.32834413372847
H         2.22458576742139   12.91611607411281   18.04976469113729
C         0.60934001011059   11.59319437932567   17.50049353810281
C        -0.26302547778302   11.86536781912347   18.59246467409940
H         0.06149213223920   12.57972791687042   19.33377230030134
C        -1.46955343321337   11.24973890287693   18.70823968070877
H        -2.11994362615006   11.46669997905311   19.54198574858703
C        -1.90773343899725   10.30396337416345   17.74063122140901
C        -3.13749774919709    9.62224111040770   17.79031173512088
H        -3.82050412594227    9.80830214261942   18.60584354832903
C        -3.44346885548034    8.72660823931081   16.79358685425803
H        -4.37631316057429    8.18589884157709   16.80098817852233
C        -2.53474032168273    8.50184810660978   15.75100639901811
H        -2.74715092562115    7.79640077213270   14.95743384925697
C        -1.06029228309064   10.01463180887435   16.65020767879645
C         0.20309503233698   10.66074391838721   16.52374549954209
C        -0.86276059542220    7.47057429563509   10.53251328514833
H        -1.85362583900747    7.77303631048635   10.83215214943363
C        -0.16773505486588    6.58297870823979   11.35843082623983
C         1.07511210254954    6.12488481803467   11.04820638317632
H         1.56808813162065    5.43977803978261   11.72102790172997
C         3.06945648447337    6.25141136740468    9.59872565586444
H         3.53671391166819    5.46757811738183   10.17749127094030
C         3.76862455736194    6.94783012646271    8.65288167333714
H         4.81096481693968    6.76049966536341    8.44871795627165
C         3.14316288059353    7.98136483117443    7.94985262106023
C         1.82125879275491    8.25814701223260    8.11335775288696
H         1.37961210733914    9.05277075506325    7.53251685641935
C        -0.25585526824504    7.95045622345002    9.40650722995027
H        -0.75543765972624    8.65998979313420    8.76323909896156
C         1.07253831692324    7.58114829598377    9.09922666167025
C         1.73383173724687    6.60610584538343    9.89805076038679
H         0.52596451421737    6.97466935186473   16.47818766404781
H         0.78014405184734    6.55352053077530   15.00909004991128
N        -0.75340730523964   10.62170347028447   12.82955701013484
N         1.42387868504132    8.97536171129744   13.04725418493277
N         0.94941258877973   10.32740713765415   15.44743084724875
N        -1.37784295323831    9.12868555896603   15.68470876648342
Ni        0.03267131487274    9.00090584713109   14.36906375672809
O        -1.02600524057156    7.75113596237103   13.44386940397717
O         0.18055394937357    5.66140923987919   13.79389904455659
O        -2.11663500178118    5.68737833593331   12.93808305477766
O         3.31737998035093   10.28260376446806    6.74646320096212
O         4.83355631410494    9.67910881478559    8.55268825669465
O         5.13004942945252    8.66021695909022    6.33745744694706
O         1.02187466671533    7.23234820481010   15.69792524476921
S         4.22244665213826    9.27693820197892    7.27569054328457
S        -0.83232421661900    6.33327869567990   12.98098679675902

