54
CSD_code = GESWUW | q = 0 | S = 0 | Stoichiometry = C19H28FeNO2PSi2 | MND = 8
Fe        8.73156724648928   15.43859659468747   -0.10967987228431
P         9.36668904890606   16.64081611500821    1.61776342588239
Si        8.37677552002334   15.27887594559253    4.20550671376936
Si        7.40295709512952   18.03657330750874    3.03514744466316
N         8.43256528011300   16.59422624929930    3.02481055506790
C         7.38302854659610   14.67532461522335    0.68295995132404
O         6.53425905930613   14.08862340606010    1.19188017383112
C         9.56814271692411   13.93357931769984    0.17167637402315
O        10.02634895744571   12.88291810758998    0.26858320211191
C         9.48611464911665   15.46642893845117   -2.31748297245666
C         9.93699559980399   16.72600070392576   -1.83282908030101
C         8.80773389448753   17.53545243214773   -1.61836737877749
C         7.65794745378071   16.76426430580058   -1.86804089542872
C         8.07766437939482   15.49168724023695   -2.34176827091408
C        11.02717151874188   16.24339245537211    2.22284557214791
C        11.95988274622634   15.64543551214910    1.37560649200100
C        13.26333308778097   15.45170256973887    1.78870396741456
C        13.66502486075537   15.87474907271753    3.04657025203090
C        12.75789831260443   16.51113910010403    3.87960501026401
C        11.45390020850316   16.70541655056187    3.46802553003799
C         6.57461943299954   14.68985314492207    4.41835424713993
C         9.42357466932807   13.80763223303393    3.62369134540796
C         9.03045995008537   15.91748564253681    5.88618911998796
C         6.17695796404307   18.05186765507575    4.48822812421517
C         6.43973023362957   18.09053650027035    1.39173713506551
C         8.57339791731185   19.53781935330795    3.18785714413995
H        10.11237791350622   14.68996914690729   -2.72745793489865
H        10.96303327321302   17.05399421155009   -1.79669350890410
H         8.82436406705308   18.56475402187898   -1.30145245525835
H         6.64379743398486   17.12855345067968   -1.87190904159240
H         7.43779799979103   14.73477136342177   -2.76449328423854
H        11.64231176183404   15.31934003344649    0.39197706242198
H        13.97183222908625   14.96917949823081    1.13062360399860
H        14.68309249403664   15.71780995471286    3.37118393664407
H        13.07392433284258   16.86148901174077    4.85208937970033
H        10.74667468821595   17.21588961845542    4.10326682785929
H         5.99223652653833   14.82112319981074    3.51351660624792
H         6.07020703373326   15.21843642890446    5.21913615768675
H         6.55592756775756   13.63325934848795    4.66625358654163
H         9.11836758687728   13.49358310411577    2.63118228869978
H         9.29309451709658   12.96332714800756    4.29308179664086
H        10.48217368682296   14.03882333546161    3.58652217377942
H         8.52446570962774   15.41106905846440    6.70182358872614
H         8.86727794278737   16.98344152475083    6.00875867692336
H        10.09343037707495   15.73010441623101    5.99964381172524
H         6.64222458464130   17.77590831358897    5.42668684728912
H         5.34468982250561   17.37963282970116    4.31772549932098
H         5.77090029960918   19.05151883974621    4.60170721535253
H         7.02588607510237   18.56282084636007    0.61037564371026
H         5.51096603433618   18.64333069526273    1.48774951414595
H         6.20123812113621   17.08443133507379    1.05528959105091
H         8.06362812865593   20.46287305112629    2.93906626383744
H         9.42409886663356   19.43224239248201    2.51944259758401
H         8.95984057597104   19.64032675238631    4.19743024463747

