61
CSD_code = GESZIP | q = 0 | S = 0 | Stoichiometry = C21H15B10CoF14 | MND = 11
Co       21.13889962090527    2.98328687220368    5.67988934219460
C        20.09272751730026    3.90157707444898    4.10968301801412
B        21.21494482944254    4.85195432111057    4.66155029213232
H        20.86229543309821    5.87033081132509    5.13447670184237
B        20.31748704332716    2.47832822995994    3.50168388161529
H        19.35597442616771    1.89581840491437    3.16296221294576
B        21.12078829833839    4.05347609819745    2.66973096839892
H        20.54122044266970    4.60814133062908    1.81645144464970
B        22.75477719305264    4.21552393974316    5.14254304672945
H        23.31565556523677    4.83644320210741    5.96753047468078
B        21.78829444607595    1.62902278760319    4.13992938703369
H        21.60247437384305    0.49388709972030    4.38188128378716
B        21.68912023545376    2.26341134024042    2.47480301822560
H        21.47114144093977    1.58557584871104    1.54153074095355
B        22.58870486480982    4.89594098928898    3.50431172198673
H        23.01514881379737    5.96214336093672    3.26349296874298
B        23.03699554337841    2.48667495228165    4.96128433483623
H        23.76681205514478    1.94597148625494    5.69995337512386
B        22.78768681135304    3.60956873060821    2.36431120119100
H        23.27261856528227    3.85321436930086    1.33168337393551
C        23.71595595268634    3.66149899705046    3.86914811878926
B        23.25335993770747    2.13754085092866    3.24885761756298
H        24.11527466620298    1.42520796112030    2.89396630135420
C        18.71956098569158    4.43146166049718    4.09174973599019
C        17.60146193706623    3.70281134421118    4.51985224837683
F        17.75703907900344    2.45670537305403    4.99290247848194
F        15.32322697563157    3.42337116140622    4.95102963483981
C        16.30630920410193    4.20214486879487    4.50023329524947
C        16.04532624841965    5.48099695336255    4.01815767122371
F        16.93811782320152    7.45217835549002    3.08447762950019
C        17.13472176383837    6.22363721063892    3.56220575765255
F        19.40134827451686    6.50567546287226    3.14021042994050
C        18.42357299377350    5.71588016498792    3.60437941055360
F        13.70806373294834    5.29655579422153    4.41846722922557
C        14.67001126669539    6.09600193560982    3.96215261763826
F        14.33014058872402    6.42946445979543    2.70858792505932
F        14.60860882232576    7.22224804789661    4.69034522990401
C        25.15827852725636    4.00249485009369    3.92991328677865
C        25.93208462946703    3.86892635769684    5.09812394348547
F        25.39550363734027    3.47184463642588    6.25949501645017
C        27.28922402379530    4.15450802166616    5.15425519480753
F        27.92546755711930    3.98379437708310    6.31203784949871
C        27.98796017759723    4.61509856107553    4.04242021957332
C        27.24730006790549    4.80126206089922    2.88266363515861
F        27.81465321294134    5.26937450937285    1.77459319974478
C        25.88676091518434    4.50999857802188    2.84156855955484
F        25.29694159214996    4.77213302648419    1.67097741005134
C        29.46434682385718    4.90070871790681    4.16434027305951
F        30.13529645814217    3.82132536303177    4.59178452589802
F        30.03071619422649    5.27431704093405    3.02014583381120
F        29.70102160026749    5.87846175876095    5.05172618173853
C        19.83340771003227    1.83147962430091    6.91069356528906
H        19.09394819976889    1.10086203505934    6.63622387671380
C        21.18208277029128    1.57883290254851    7.21081071667110
H        21.65997346273201    0.61507832588375    7.22733705819739
C        21.77094820442085    2.80168775042314    7.63858858243518
H        22.76573792484753    2.91247229613743    8.03402214052092
C        20.77109402055506    3.79744040325040    7.62675984609708
H        20.87713689578928    4.80731146119753    7.98181077563017
C        19.58894824507463    3.20513527993150    7.15067945952678
H        18.62949937708585    3.69118021028994    7.09562272894551

