66
CSD_code = GETBAK | q = 0 | S = 0 | Stoichiometry = C23H29B9ClNPRhS | MND = 6
Rh        9.02167501801395    4.38326456636454    4.57315965396235
Cl       11.21124093402994    3.70961843725012    4.91473777816877
P         9.24554738198475    2.52923027528809    3.28859739221521
N         6.05814703005013    3.29847667552014    4.62707335495301
S         9.41028707425268    6.16224242403485    6.12012567509439
C         6.04522863458390    2.24366647947064    5.47248251836860
H         6.66179169802773    2.32708184204359    6.35591684233676
C         5.28495751779665    1.12092946006696    5.25074653776535
H         5.31745185175321    0.31024306695448    5.96118717314604
C         4.47713608207484    1.04814934850168    4.12227382268897
H         3.86395652935500    0.18366377673770    3.93084452861112
C         4.48304885479230    2.13429886121998    3.25582904620219
H         3.86899596127322    2.13730824510179    2.37065261301180
C         5.27601909256721    3.22274930202508    3.52843678140622
H         5.29764665490472    4.08236915847463    2.87997644787464
C        10.32807750095434    2.84618874974157    1.85425588373470
C        10.60884519951149    1.84177505975097    0.93187667659688
H        10.20729468376387    0.84775893592660    1.08006287538610
C        11.39832377632741    2.11507196804554   -0.16929500140609
H        11.62276865021640    1.33077568934693   -0.87796582609800
C        11.89939609100439    3.39259463897335   -0.36630355021007
H        12.51710304732676    3.60129930210242   -1.22756628442063
C        11.60394763331550    4.39933085104712    0.53729370392218
H        11.98728665200501    5.39664860974954    0.38031492526517
C        10.81786750441202    4.12803044898747    1.64325308487810
H        10.58462675945709    4.90563307832534    2.36189179266476
C         7.88646075467562    1.76108762948828    2.30613292104324
C         7.43700138373331    0.45313190991420    2.42711011677201
H         7.87330494350027   -0.20573133684291    3.16384981912850
C         6.44428532518495   -0.02507056555380    1.58804259986722
H         6.11063996281500   -1.04828530466669    1.68546253425572
C         5.89362826671622    0.79288322349187    0.61710145953440
H         5.13072358264879    0.40984517112095   -0.04461088625503
C         6.33148149339348    2.10214414768490    0.49270105599004
H         5.90900395305444    2.74470046414657   -0.26583364251562
C         7.31302090400885    2.58185403476866    1.33728340226392
H         7.66781940523904    3.59917901283352    1.24360254896587
C         9.97169877650261    1.06095098437873    4.09352939723712
C         9.23633655740994    0.46022781161233    5.11143563817343
H         8.25696173763530    0.85186433549662    5.35609334366153
C         9.74730278957940   -0.61734772848420    5.81012237464021
H         9.16665349912413   -1.07652305481462    6.59774618759693
C        11.00982752813758   -1.09928571504668    5.50624879512783
H        11.41493555016244   -1.93774020059367    6.05342616037149
C        11.75722231060126   -0.49087749678467    4.51189632065893
H        12.75043174325230   -0.85143512496696    4.28723361445907
C        11.24588162149649    0.58639165841598    3.81031437392353
H        11.84712303857621    1.07415347104772    3.05799498460554
B         7.14600580083898    7.35122036721814    4.45427214313546
H         6.83109694054554    8.23188632540151    3.73673219471584
B         8.20769308579433    7.68285214466273    5.82690198008543
H         8.70924705490981    8.71366394677818    6.08737619000013
B         8.75758413566615    6.69273749645628    4.39494713544885
H         9.61884289848889    7.06944657542385    3.67957998337612
B         7.36534187811419    5.70500611601438    3.79131170835589
H         7.22190192282337    5.56765736039339    2.62183612320025
B         5.98534592527969    6.06887188137459    4.89910087031272
H         4.86479800260335    6.06563756233041    4.52523707144416
B         6.55299262447082    7.16626116961378    6.15806448637156
H         5.77939938021287    7.88648822077229    6.67797916429242
B         6.85044926598382    4.52830096221691    4.91398698007035
H         7.25758543701496    4.45122090138869    6.18099301622712
B         6.46739090879817    5.42611958038742    6.53251682138748
H         5.65486872328055    4.97521095619525    7.26276491864278
B         7.82902068169096    6.43389292805100    7.09621821609348
H         8.05132239226187    6.60440892757558    8.24103943124763

