63
CSD_code = GETFUH | q = 1 | S = 0 | Stoichiometry = C30H28CuN4(1+) | MND = 4
Cu        6.24358985729655    1.74772525718448    3.73606295280117
N         6.77700736430590    2.50090232184982    5.53600964012122
N         7.20608323151897   -0.02166631458274    3.47587180479710
N         5.05158939133616    0.43994266383612    5.12475863637261
N         5.44846911840186    2.75138238488113    2.40108131926172
C         7.87244726832222    3.27230362239794    5.72134105774349
C         8.65919379750654    3.63717467380294    4.61322937710812
C         9.76846525691934    4.41910822435366    4.78330707969363
C        10.13811738218158    4.86732170175722    6.06213994556117
C         9.39276095659368    4.52870626285333    7.15740584483046
C         8.24328140951471    3.72493567369796    7.01638450785185
C         7.43021433974774    3.33972913691945    8.10154502610475
C         6.33297104693686    2.55263119808868    7.87588513468441
C         6.03525943455398    2.14803298277558    6.56313322796175
C         4.81950306067518    1.30620914334747    6.27239878829911
C         8.08566953085818   -0.25237915163769    2.47338419337696
C         8.37654773068562    0.77081876435830    1.55209298012309
C         9.27086714294254    0.55512176361619    0.53957366394448
C         9.90984042559804   -0.68762619956633    0.40161560903985
C         9.63980234049028   -1.70416124008709    1.27531997112091
C         8.72312219958816   -1.51395714758528    2.32888127487874
C         8.39726407541625   -2.52187198786174    3.25919370918328
C         7.49392509059486   -2.25532294275048    4.25106120219037
C         6.91169315332113   -0.97682881915463    4.32770562394046
C         5.96160474639950   -0.65256262462906    5.45146545544709
C         3.81126843954550   -0.03816067855041    4.52559377420207
C         4.03584156023606   -0.68119253322132    3.15392184544351
C         2.71655129307606   -0.87310472246952    2.45790937809752
C         2.13051151341324    0.18894479022853    1.78073915360551
C         0.90195211073269    0.04039226494072    1.16372684272961
C         0.24188818264779   -1.17581156510290    1.21986824226512
C         0.81691797635618   -2.23896499982542    1.89372392007632
C         2.04710765241433   -2.08709770825814    2.51028266817382
C         4.79683786761966    3.37166303312008    1.68557149901946
C         4.00702034897800    4.13939037913728    0.78446600416548
H         8.35631559137599    3.28088591384460    3.63872112138234
H        10.37047748772368    4.69800523218239    3.93217559717839
H        11.01701260016857    5.48330649573183    6.17257420633413
H         9.66923980463220    4.86962311394903    8.14369267836851
H         7.68470073335996    3.66703731921916    9.09854195169125
H         5.69357192284993    2.24003224963479    8.68655428142557
H         3.99685916666571    1.98684182770980    6.02794125372473
H         4.52692080950739    0.74062191637487    7.16954458149790
H         7.86789839461479    1.71787668545983    1.66706970206294
H         9.49209676910335    1.34252618553524   -0.16473984626055
H        10.61248568037244   -0.83476070009900   -0.40370518793563
H        10.12032358794001   -2.66550265093545    1.17358083143856
H         8.86304432513641   -3.49248997108529    3.17561063085140
H         7.22283386789837   -3.00684239024254    4.97609385785894
H         6.58042547231352   -0.35341613353710    6.30517320912252
H         5.41071092876970   -1.55738384849357    5.74543913312154
H         3.30245634253005   -0.75629777628847    5.18757163374250
H         3.15076561208962    0.82230805438581    4.39296896557487
H         4.67326614049554   -0.01645918519109    2.56378518762133
H         4.54384054251196   -1.64061032643060    3.26183611227869
H         2.65215686394454    1.13607666722153    1.73860356340511
H         0.45623399253312    0.87100328608144    0.63639581565907
H        -0.71569100048699   -1.29434512278924    0.73675976863261
H         0.30793206293773   -3.18990009795945    1.93782872484670
H         2.49269670636702   -2.92160263714626    3.03265284443564
H         4.51467166060800    4.21519720280648   -0.17729199177016
H         3.03938843493300    3.65879739645984    0.63872595676321
H         3.85337920237948    5.14014368574231    1.18914406273782

