65
CSD_code = GETGES | q = 1 | S = 0 | Stoichiometry = C34H27CuN3(1+) | MND = 4
Cu        7.23661657990308    0.64212757551312    8.44532388462778
N         6.94869925829409    0.94953659328357   10.43495265975138
N         6.52442336887207   -1.06205068275242    7.66474864047341
N         5.07460298863072    1.15087346458893    8.34165340159973
C         7.93842334657962    1.21132148011053   11.31783995083945
C         9.23663578561719    0.72849804806809   11.06845826639770
C        10.25205847976052    0.99601879470857   11.94445516940164
C        10.01562112394329    1.75413426298290   13.10331563143028
C         8.75923316749777    2.21227007573564   13.38673569093422
C         7.68772467797380    1.94307735026563   12.51047336166008
C         6.36343540412227    2.35407104927138   12.75838692157364
C         5.37608603157510    2.02141066007314   11.86848608015653
C         5.71323006712944    1.31602594379563   10.70252719803355
C         4.65695257490810    0.89139622384397    9.71415913407327
C         7.26584931417983   -2.19378609659909    7.58728804606442
C         8.63712200373902   -2.14241708763824    7.89542715433876
C         9.40199862597889   -3.27461810115426    7.82921781151965
C         8.83003884549163   -4.50064336098814    7.45142154055800
C         7.50130453989153   -4.57874999455127    7.13715418100703
C         6.68685100807180   -3.42941918708424    7.19340197429857
C         5.31367966708078   -3.43546367399031    6.87500619846364
C         4.59849031779609   -2.27062612120998    6.95269669260750
C         5.24330684317000   -1.08917607419825    7.35717103489699
C         4.47935162546777    0.21116980519286    7.40410759123293
C         4.88699307795644    2.54750429622471    7.97226860020347
C         5.81969584277901    2.98895261755444    6.82495990919654
C         7.21182229472079    3.25343719091662    7.30257590461597
C         8.11526761462872    2.36327826783794    7.90193762416798
C         9.42553187564151    2.61074968977416    8.25189424756023
C        10.00717576028630    3.85579410820404    8.06135891632174
C         9.15918172396724    4.81657645460075    7.51606024011559
C         7.91433092643303    4.39038280897478    7.22136706824381
C         5.24933554695974    4.22366596143018    6.16389190686566
C         5.22619842323175    5.43559270716542    6.84376116635360
C         4.69692933944387    6.56472385227679    6.24433318425985
C         4.18102640980588    6.49343578264487    4.96119870717516
C         4.19806002351263    5.28902362513791    4.27978952725384
C         4.72937729078361    4.15975576961853    4.87946851128273
H         9.39045553197299    0.12826099421945   10.18433294669715
H        11.24590895900147    0.62034117505748   11.75443419036995
H        10.83380000210168    1.95973176062558   13.77579974484904
H         8.56435352893512    2.77797366333595   14.28530989158996
H         6.13934251730856    2.91651663682914   13.65254044231985
H         4.34896807746688    2.29939878129091   12.04613365573081
H         3.69848246633232    1.37711865833087    9.94675932168198
H         4.52629455852652   -0.18991287424350    9.83311294234313
H         9.05477795939649   -1.18241397633816    8.16829096399521
H        10.45472385003018   -3.23328972922471    8.06315310139440
H         9.45128919756690   -5.38152555256297    7.40714561331643
H         7.05557881094131   -5.51591260939421    6.83999448446809
H         4.84182845967391   -4.35870516562680    6.57393497110276
H         3.54774958341810   -2.24416491791419    6.70987130033899
H         3.42159272731478    0.01659171087029    7.63432957382404
H         4.51349567727011    0.64418775916614    6.39929300459911
H         3.84494081367364    2.73989547546123    7.67474279396734
H         5.10357428810160    3.15956521611888    8.85089424809006
H         5.87568987738857    2.18087111591820    6.08692371702792
H        10.01925560543518    1.81611603943259    8.67674170370090
H        11.03628559552079    4.07100300444253    8.30861923096852
H         9.48102561610105    5.82690984892638    7.32978370344686
H         5.62177251421976    5.49825232940064    7.84741778811887
H         4.68346453798898    7.50081949011815    6.78183718052464
H         3.76564700566546    7.37358043885745    4.49521946604346
H         3.79976316435861    5.22713534014050    3.27855488181929
H         4.74707727847125    3.22440130714256    4.33735540810724

