123
CSD_code = GETGER | q = 0 | S = 0 | Stoichiometry = C64H52N4O2Zn | MND = 6
N         6.18162253021124    7.27773682678371    4.83707262618819
N         8.25045828147304    8.14560138661187    6.62320064220458
C         8.63747891338162    8.83725350191656    5.52420938108917
C         7.99944825434956    8.82756396646678    4.28260349311431
C         6.84333732445863    8.10251681282446    3.99039701780607
C         6.14761315007974    8.17189079978870    2.73171180409452
H         6.43967253331354    8.77590911655544    1.89439745681431
C         5.06710590528176    7.36571442985797    2.84047414641198
H         4.30577708427711    7.17647104668825    2.10805123311252
C         5.10369019418032    6.80518420177561    4.16603232939964
C         4.13287031545139    5.94056550489603    4.67334323910880
C         9.14878026285115    8.41956891569557    7.59970072420947
C        10.14460468965824    9.33463540962758    7.10618119362161
H        10.96326846639980    9.72839870793690    7.67774518601927
C         9.83275700777724    9.58551166896986    5.81369288694910
H        10.36204224321245   10.20527027444940    5.11604941453363
C         8.58653946896466    9.63762215642163    3.19530722295810
C         9.04608240113424    9.02933485693809    2.02994692844944
H         8.98129011079415    7.95503766360114    1.93535670490602
C         9.59136330262300    9.78301186723718    1.00918318889504
H         9.94729972959466    9.29317806666002    0.11338121211564
C         9.68994877917643   11.16595549773453    1.11478273052971
C         9.23182862507731   11.77092181627644    2.27719609048755
H         9.29741772373534   12.84534680191028    2.38057766918444
C         8.69238913479569   11.01969025992971    3.30494045538384
H         8.33263233451278   11.50617232140889    4.19925371057329
C        10.29156888807245   11.97093233036271    0.00256725446772
H         9.86817222095786   11.67757017842056   -0.95662604308714
H        11.36775181947340   11.80232405790979   -0.04388980299594
H        10.11808480047626   13.03378281425582    0.15240515557011
C         3.04391001209021    5.52839847830496    3.76099995882016
C         1.72745857407759    5.90608008039638    4.01051560686055
H         1.50773263749026    6.50981635097810    4.87934711661868
C         0.71256051044422    5.52562203621438    3.15472964058900
H        -0.30400340876590    5.83137760335743    3.36003845037757
C         0.97797420801193    4.75361050066869    2.02876201246522
C         2.29086958616273    4.37588240095922    1.78302460362164
H         2.51935070409030    3.77371479704814    0.91449765967426
C         3.31151953861082    4.75905892127585    2.63414938829627
H         4.32808309134438    4.45415074094510    2.42995101840785
C        -0.13409835605100    4.35435554686484    1.10642502174457
H        -0.54636272855401    5.23282665446364    0.60985506492683
H        -0.94077238435484    3.87941112324019    1.66306312667180
H         0.21939114295947    3.66312276169610    0.34531751150283
Zn        6.62718074468105    6.93247466097760    6.78877551480498
O         5.46920343874552    8.77093804377393    7.36102217773483
C         5.86087026300181    9.92048500976103    7.28523709655213
C         6.60925946295507   10.56451973812002    8.42257503382896
H         6.14843985864812   11.50761163026672    8.70771565951273
H         7.63759649893695   10.75208179753056    8.11803194514509
H         6.61885701998479    9.88231249260960    9.26870935910812
C         5.60809887473812   10.73246259593960    6.07422045245914
C         4.75111656744300   10.20913235993328    5.10422567844039
H         4.28720482253770    9.25301546761259    5.29161038590067
C         4.50681549129583   10.89895923768583    3.93375682342125
H         3.85034179802267   10.47738759516312    3.18755564444770
C         5.10961708768463   12.12739453671376    3.71769663829602
H         4.92553861907124   12.66869490474656    2.80153385641553
C         5.95058048110230   12.66406304774068    4.67997062772161
H         6.41705647758046   13.62389874884993    4.51120655724761
C         6.20297489235958   11.97391415131841    5.85114767994488
H         6.87539076532819   12.39783953231782    6.58114310513397
C         9.12151546229053    7.92435411589217    8.90420212554497
C         8.15068065572699    7.05976335570823    9.41152449154777
N         7.07273354489745    6.58723559741190    8.74049185613541
C         6.41098141171003    5.76250747866910    9.58718807933218
C         5.25484582461464    5.03749443250817    9.29499289587603
C         4.61683618770002    5.02776939642621    8.05337927158326
N         5.00388993915673    5.71936913091872    6.95437057579222
C         4.10558365944138    5.44537611932417    5.97785822335884
O         7.78510002854043    5.09395285905695    6.21657590586598
C         7.39344350401359    3.94440054708067    6.29232850080354
C         6.64505568903892    3.30039241572618    5.15497680614269
H         7.10585876017764    2.35728808179059    4.86986322064156
H         5.61669966106051    3.11285830542958    5.45947895791552
H         6.63551685592702    3.98259186169776    4.30883514591111
C         7.64607517469645    3.13243809920758    7.50338896784280
C         8.50303889092995    3.65573154862860    8.47341741309389
H         8.96701952962857    4.61181702768828    8.28604291507874
C         8.74725754283411    2.96589540591043    9.64389691288455
H         9.40378331480846    3.38740235140149   10.39009053797967
C         8.14436025248206    1.73750620958777    9.85995095652505
H         8.32845581662734    1.19615142707562   10.77608093151182
C         7.30342599540145    1.20086580090841    8.89763598194342
H         6.83691759043619    0.24103992716277    9.06637400431591
C         7.05112484700109    1.89101685470629    7.72644108285350
H         6.37867759028298    1.46714662954928    6.99644157286997
C         3.10975335766815    4.53032092624721    6.47138542052144
H         2.29110047627710    4.13653717272526    5.89981853031330
C         3.42156458681220    4.27950056381341    7.76389454452076
H         2.89225777318000    3.65977674848147    8.46154919068231
C         4.66769870829889    4.22750931246450   10.38231267321259
C         4.20816277417398    4.83588140821194   11.54763124530076
H         4.27299871847983    5.91018109274739   11.64215883382010
C         3.66282859731588    4.08228583784505   12.56842725969222
H         3.30689762542513    4.57218678650214   13.46419538332899
C         3.56418287403642    2.69934017208827   12.46290448648645
C         4.02229483844914    2.09428974691624   11.30053143896501
H         3.95665586518273    1.01986139266617   11.19720854702953
C         4.56178458985603    2.84544067851034   10.27275179495542
H         4.92153711730600    2.35889210717884    9.37847264724057
C         2.96251444857690    1.89445257914167   13.57516067732907
H         3.38594316961606    2.18782436350535   14.53433723206507
H         1.88634397212971    2.06313902091708   13.62162587587884
H         3.13592123537885    0.83158301861776   13.42536824808175
C         7.10670742642541    5.69312503997850   10.84587006307385
H         6.81462204765850    5.08913768742123   11.68320071227223
C         8.18724739707968    6.49925235598135   10.73708901229980
H         8.94858087985030    6.68848156866928   11.46951320070900
C        10.21051249524700    8.33647728028532    9.81651826952038
C        11.52694895796360    7.95876946890802    9.56696297920291
H        11.74663887139199    7.35503802295118    8.69811887749481
C        12.54187921366949    8.33918977154519   10.42273240977844
H        13.55843303606635    8.03341717204415   10.21739225288132
C        12.27651523566003    9.11119668162955   11.54871520097125
C        10.96363386326348    9.48895444295963   11.79448819853469
H        10.73518907261501   10.09111440909128   12.66303111076052
C         9.94295135131135    9.10580811641353   10.94338623224330
H         8.92640052925640    9.41074258192240   11.14760713144543
C        13.38862244583191    9.51041499983659   12.47103157422147
H        13.80084839283714    8.63193674474136   12.96762188697621
H        14.19531785390809    9.98530407547839   11.91437677570328
H        13.03517968493372   10.20168486466141   13.23212708033614

