59
CSD_code = GETGAO | q = 1 | S = 0 | Stoichiometry = C29H25CuN3O(1+) | MND = 4
Cu       10.73986792221765    0.41861719429043   14.90124668786847
O        10.41953709163827   -2.10691755555229   16.34344328420757
N        11.63850164201804    0.70782520566241   13.11565243499588
N        10.91193536279678    2.21779768552880   15.79820581917990
N         9.18106896749880    1.58400240383281   13.86874528443963
C        12.74760241717084    0.03177498620025   12.72421701948985
C        13.33680071446840   -0.92248179149247   13.57457203677243
C        14.46328286585329   -1.59673324087651   13.18802461982156
C        15.05275397004434   -1.35107785034156   11.93798718547425
C        14.49849757984483   -0.43873670316800   11.08396049962377
C        13.33631797118276    0.26985224150619   11.45124410714418
C        12.71653470916736    1.21052250360621   10.60468613166744
C        11.58744385864266    1.85691222944621   11.02742247132357
C        11.07548210894605    1.57878011135676   12.30595187264397
C         9.87185540572605    2.32672762579077   12.81580761085138
C        11.98810454666241    2.61070999597391   16.52054475830264
C        13.15104884989288    1.81874892540330   16.53823094855399
C        14.24043868698597    2.21029788331190   17.26783958285557
C        14.21690906252533    3.40289275290485   18.00893823463633
C        13.10284986882398    4.19564604387053   18.00686729727103
C        11.96444782490541    3.82347541598120   17.26327825523076
C        10.78891592267946    4.59966099954475   17.21801097710739
C         9.72895928830941    4.17759136986539   16.46169921843533
C         9.82950179326348    2.96597233781895   15.75813942592433
C         8.68313047035678    2.45884196444588   14.92292195833965
C         8.16972439021014    0.66800843002036   13.33679840017255
C         6.90613668634108    1.31988300166173   12.75215384680042
C         5.99498091765313    0.24180894427209   12.22884771502527
C         6.16618161251130   -0.26208000177872   10.94610907641810
C         5.34732341517216   -1.27125473474586   10.47223626256179
C         4.34904709623052   -1.79054177119347   11.27894831291561
C         4.17437728799010   -1.29701044671059   12.56031044704489
C         4.99526095987508   -0.28816301918534   13.03280379570867
C        10.51728025215091   -1.12810464961646   15.77739745644536
H        12.87203971200049   -1.11640957472542   14.53134361123890
H        14.90564868630595   -2.32787938271755   13.84697575076926
H        15.94142717357264   -1.89300706720763   11.65503648308519
H        14.93624070155701   -0.24714388791793   10.11598771755595
H        13.13877367691224    1.40667046782680    9.63047697298009
H        11.08732776920240    2.57805505095413   10.40044338987605
H         9.20630570444037    2.56757502791328   11.97914989893367
H        10.23589731835409    3.27520909350950   13.22656380512011
H        13.15863782635480    0.90523584163216   15.96221283576610
H        15.12972762902447    1.59903478111642   17.27863921933520
H        15.08683730078648    3.68894797745966   18.57908300992621
H        13.07482015979135    5.11573427037313   18.57073442096295
H        10.74072232770307    5.52237994864354   17.77669530039093
H         8.81903461291587    4.75344002628747   16.40098591528554
H         8.10784929644643    3.30779785758606   14.52991262399239
H         8.02078514472152    1.87340555069941   15.56962864296908
H         8.65155125800727    0.06168848680457   12.56531417976317
H         7.86877809907047   -0.00410810848705   14.14484535447107
H         6.38944229875212    1.88930374365850   13.52616517649704
H         7.16568866427843    1.99964777874051   11.93838085912000
H         6.93994724609232    0.14532779012729   10.30974749015377
H         5.48585111243381   -1.64964429451701    9.47069485275989
H         3.70635262733397   -2.57412077313189   10.90836467257994
H         3.39519320302016   -1.69523772368825   13.19239201268111
H         4.85051893116505    0.09754863143228   14.03238276853172

