27
CSD_code = GETJUK | q = 0 | S = 0 | Stoichiometry = C12H6N6PtS2 | MND = 4
Pt        0.62287546768777   -0.37882988065388    1.59065651041179
S         2.79880559810073   -0.63534707081282    1.01330389845303
S         0.40953327337024   -2.63232320690050    1.68819787766661
N         5.36398654184778   -3.14846363418632    0.36463204619590
N         2.24424979299830   -5.75462090797713    1.24195031282803
N        -1.30386274930431    0.00533387170956    2.09318558961138
N        -2.81266218295829    1.80633824853965    2.43599603686287
N        -0.73573490406058    3.54316061742131    1.84555514349474
N         0.66073056748967    1.64805212477834    1.53547734361591
C         3.01843794688229   -2.35876132430612    0.98313788355966
C         1.99242976667201   -3.21623341392905    1.27254462003938
C         4.30349810611212   -2.81055169741836    0.64415002620024
C         2.14881171557534   -4.61104437302293    1.25132893000827
C        -1.61588693725481    1.32845243338708    2.13746575593074
C        -2.28456509843550   -0.85914957441277    2.37652120808407
C        -3.55438776037224   -0.42826330448075    2.69686224236282
C        -3.77240678348794    0.95350980813869    2.71170723687107
C        -0.52986604206850    2.23659248612241    1.82893195631540
C         0.27211830081569    4.33572636798159    1.56181689978873
C         1.53867325412301    3.83080796723430    1.24886738513940
C         1.68450075873837    2.45985121445421    1.24865957324491
H        -2.03335003774399   -1.91204193464259    2.34205873537311
H        -4.33861530276730   -1.13014963059427    2.92396864135968
H        -4.73586720896896    1.38097242674141    2.94980385777472
H         0.06549313084515    5.39616568903859    1.58448500781627
H         2.36733461197228    4.47786777507770    1.01707161784356
H         2.63172617417534    1.98894892273214    1.01656366314895

