88
CSD_code = GETKEX | q = 0 | S = 0 | Stoichiometry = C43H39N3P2Ru | MND = 8
Ru        3.20459182809838   11.01110099168811   10.36204736163596
P         3.47824912768586   13.25732485121498   10.24806058563473
C         3.26758985465235   14.11032803335063    8.65071178352086
C         3.49107724998899   15.47952669696711    8.53399851504446
H         3.82066613110868   16.04592496313664    9.39458232286649
C         3.29745263899885   16.10846516275842    7.31874943050058
H         3.46773744694641   17.17152828673819    7.23038092632770
C         2.88469134704341   15.37895824655093    6.21420308699545
H         2.73530816392667   15.87491417820594    5.26663184329201
C         2.66247562262723   14.01667955659923    6.32581304041736
H         2.33731262322490   13.44833956773360    5.46668897847703
C         2.85425471895154   13.38409966429634    7.54147523378474
H         2.66918436306979   12.32169975168186    7.65104320119656
C         4.99911275655858   14.08549676182337   10.82931425944232
C         6.08859146824015   14.10116102903159    9.96025242270609
H         5.96622818549952   13.70447105680891    8.96128493141884
C         7.29785683832162   14.63991214629064   10.35599254184931
H         8.13375271561053   14.65173761332401    9.67135339361871
C         7.43705768329926   15.16475834866992   11.63131316647984
H         8.38217525255487   15.58271838141310   11.94433015716066
C         6.35843605752163   15.15873260461289   12.49950008669859
H         6.46046361196489   15.57688314398532   13.49054131066710
C         5.14567893493234   14.62110558002794   12.10431872862162
H         4.31056856611324   14.63530050270208   12.78884594672144
C         2.11658698923188   14.04866653381194   11.21913262959227
H         2.34181097849049   15.10246756026815   11.41050562520826
H         1.24468566277925   13.99686438465620   10.55540781844720
C         1.80614469108701   13.28844182169345   12.50499233960219
H         0.75184981765584   13.43207034962752   12.75678131794187
H         2.42304077917568   13.63913186373264   13.33794705192870
P         2.11507280298340   11.45676044320778   12.30663525985686
C         3.03516750064480   11.08567844605552   13.83601007666716
C         4.29988248482502   11.65839457068047   13.95210657992400
H         4.65662706164151   12.30659929105740   13.16009441437633
C         5.09487658578649   11.38864986326932   15.04852244106411
H         6.07168000391523   11.84360055866642   15.13393806952150
C         4.64068917824030   10.52377591435337   16.03306288611250
H         5.26099884128585   10.30707769549289   16.89011538870440
C         3.39644524086811    9.92903769018960   15.90958009794366
H         3.04823785418729    9.24489704112259   16.66960036803897
C         2.59450980391642   10.20254697062097   14.81422339890210
H         1.62616024635273    9.73157926067215   14.72020385281360
C         0.46847578953709   10.76447914757641   12.66277421858340
C        -0.03786657063316    9.76250485181883   11.84577332304527
H         0.57068745638837    9.39603232507764   11.03044440271848
C        -1.31290422665596    9.26745150990378   12.05465796707834
H        -1.70815724393840    8.50100153328286   11.40347765120931
C        -2.08534740659527    9.76509860174585   13.09025511370959
H        -3.08704193749313    9.39239004118679   13.24480360012730
C        -1.57304435853455   10.74296827413279   13.92874839531957
H        -2.17295107374763   11.12453641274071   14.74168444032377
C        -0.30131519031816   11.24156239672212   13.72096327276938
H         0.09552365342902   12.00157850767997   14.37975108259515
C         1.43419819584081   11.35159914452462    9.58584668293867
C         0.28936719978738   11.40935761050019    9.15289930025140
C        -1.04616972090854   11.44290989693566    8.78218214625679
C        -1.40003195801308   10.69110791422409    7.64086613654236
N        -1.61836562795721   10.05690517089857    6.70952717706384
C        -2.00195623775106   12.13720716964842    9.51429151245256
C        -1.61233428194608   12.84950355796662   10.65433636517248
N        -1.26634402870904   13.42990231923942   11.58607478869683
C        -3.36035282642500   12.13990677514844    9.17197253133820
N        -4.47735788250105   12.14263133311446    8.90070279009329
C         4.89933955799246   10.33343633879925    9.08250993956784
C         5.27434322119645   10.15663374846852   10.46724306663176
C         4.38393671770524    9.21007601143837   11.03717587436403
C         3.42651395518043    8.82430633132236   10.03352049250387
C         3.77767434467861    9.49471450648711    8.81727142937111
C         5.74984188965927   10.97399717488716    8.02261821656609
H         6.15502412888684   10.19618469078280    7.37138601795987
H         6.58474867367997   11.51010501029565    8.46749531056011
H         5.18053899218199   11.66696860930451    7.40201580890665
C         6.55969672673225   10.63535540128407   11.07806535349209
H         6.51647486329672   10.58999555805607   12.16471754433932
H         6.78339730890989   11.66302109572090   10.79131005613762
H         7.38439331870986   10.00099889150630   10.74360178690070
C         4.53965697881510    8.51710739664645   12.35654159474130
H         5.05928231406406    7.56873444494161   12.20046877020905
H         3.57281379093224    8.30211566229714   12.81091565118781
H         5.11880679059838    9.11138939015625   13.06009519522024
C         2.51761807184327    7.63309613215389   10.11976991730620
H         1.66950006110379    7.73483570533413    9.44441655193825
H         2.14396155113917    7.48792329284884   11.13214199657313
H         3.07090513108895    6.73527967845171    9.83185834947383
C         3.20172455557385    9.19326363016772    7.46563837587755
H         3.49349840561978    9.94778637104697    6.73810527722838
H         2.11344150271964    9.14772670271666    7.49601519771565
H         3.57087571483321    8.22420635206525    7.12227645518822

