46
CSD_code = GETKAT | q = 0 | S = 0 | Stoichiometry = C15H24O4RuSi2 | MND = 8
Ru        0.27123167106404    0.18250685193712   19.16945346262732
H         0.05191775608433   -0.51231989197161   20.52584067289041
Si        3.31201603383029    1.69967708613152   20.87002069458896
Si        0.83470799725571    1.10908540832969   15.58174169282558
O         1.78560689367562    2.87462420238920   18.10485555202964
H         1.94828054631748    3.34399028782947   18.93252437910789
O         2.66349333927132   -2.72957092933739   18.45884829846787
O        -1.44882337941586    2.52332061475252   19.91111672626681
O        -1.94779050967434   -1.35414650771816   17.88098460020385
C         1.81483187235957    1.52845385882407   18.31672134635524
C         2.37280572571317    0.86361293220986   19.46154114423575
C         2.36691419648342   -0.52855391343282   19.10203603975592
C         3.08751408362328   -1.79628148104935   19.45081117913920
H         4.17858040577928   -1.63714516246091   19.38192416622681
H         2.85259547865901   -2.22473052298181   20.42762845492549
C         2.14759401004723   -2.05276389047969   17.31402286045339
H         1.31724935491695   -2.64790549847865   16.92591072729197
H         2.92567674491459   -1.97675796389119   16.53372398938815
C         1.79713715651183   -0.68351046698036   17.81754052948887
C         1.42338596266995    0.60188430032457   17.30265667577126
C         2.25012442819944    3.15345446377827   21.52498996269611
H         2.47688440405335    3.34847105705730   22.56857051084206
H         1.18598764820380    2.93014201817177   21.46510739288399
H         2.43270227188867    4.08191604800861   20.98786058748952
C         4.94274591356251    2.37155002066646   20.13262900259954
H         5.48485263171799    2.95100738359491   20.87302906289457
H         4.77184319180639    3.01479090677897   19.27322493978948
H         5.59436192950559    1.56496780173676   19.80932639592764
C         3.64140858536501    0.42859525133728   22.24437256669320
H         4.31814220698230   -0.35377246157425   21.91421883817475
H         2.71956059502975   -0.04556432243548   22.56828622992557
H         4.08977806617529    0.90661219137436   23.10946705015379
C         2.28451671817299    2.02733077931873   14.74989884463972
H         1.99863083535038    2.37466334466604   13.76246258453602
H         3.15608637116647    1.38906251236937   14.63471512137027
H         2.58136332896080    2.89324972279129   15.33334503914987
C         0.38386090198474   -0.47468408355895   14.62272308528705
H        -0.37730355172417   -1.05187603200211   15.13944682605479
H         1.24459388949085   -1.11974626098708   14.47451353015297
H        -0.00748888134394   -0.22262986223898   13.64278779371542
C        -0.68757350412795    2.23623263047150   15.78195277401242
H        -1.48896975338711    1.72682676790553   16.31327783878963
H        -1.07670711431054    2.55258887116939   14.81903457719389
H        -0.43547063317067    3.12912851871003   16.34686962190882
C        -0.82606259013730    1.58912215998966   19.65594357317001
C        -1.13319322952210   -0.77060874105369   18.44344305788768

