89
CSD_code = GETLIC | q = 1 | S = 0 | Stoichiometry = C43H40N3P2Ru(1+) | MND = 8
Ru        1.39954194332411    5.64402940017314   13.47451236434538
P         3.18895683546620    6.97551408293499   14.09957108404195
C         4.55342171434708    7.22130881827582   12.92733203415479
C         4.72786440561946    6.28241958044590   11.91644155731748
H         4.00763261369654    5.47571041283539   11.82383275655459
C         5.79622284001326    6.38553618038236   11.04497285334348
H         5.93099237718384    5.65515280209364   10.26067153018568
C         6.69194603808565    7.43455663821848   11.17908319462928
H         7.52361146875064    7.52207642616078   10.49740325362962
C         6.52055546989307    8.37342414924961   12.18496723004176
H         7.22040488586115    9.18854807846145   12.28609899816731
C         5.45654956106433    8.27151361659302   13.06313040476198
H         5.32181321562835    9.00193244221623   13.84808949326663
C         2.88325882304009    8.62112086034368   14.78130827948170
C         2.89277347357982    8.90590382573959   16.14377396918892
H         3.16112739173861    8.14504842801486   16.86287125078969
C         2.57097033477791   10.18036718241675   16.58046317241715
H         2.58368198830330   10.40376942840782   17.63691441055305
C         2.22351942124900   11.16552539137425   15.67131600522461
H         1.95883938038664   12.15000033807427   16.02298984216608
C         2.20967072245658   10.88468384119974   14.31347745253709
H         1.93749342005626   11.65159019078934   13.60530552629602
C         2.53901878400645    9.61901995566129   13.87037462183539
H         2.53883903823255    9.38675198868006   12.81328977274338
C         4.04651741314729    6.03487881325194   15.44085995998668
H         4.96918608079297    6.55198311416835   15.72450835915203
H         3.37285830880845    5.98566534183581   16.30397746888259
C         4.32928112777137    4.62788387112990   14.92827614127287
H         4.70341513053950    3.98520404925701   15.72980812732357
H         5.08416938796525    4.67143543820077   14.13821767319576
P         2.77146200722303    3.90053845613401   14.22388995425181
C         3.36346741034597    2.54802389781508   13.15716875145567
C         4.50138285525397    2.64734015194270   12.36108290119234
H         5.11537360967134    3.53555376749976   12.37866245599291
C         4.87018538166582    1.59421715651492   11.54238603079469
H         5.76132774911774    1.67557369117589   10.93857970022765
C         4.10548199757330    0.44048122321599   11.49628948139903
H         4.39832214060603   -0.37737545158490   10.85682403933237
C         2.96457555616905    0.33875173390715   12.27647062709635
H         2.36520990589604   -0.55841370090797   12.24682016537051
C         2.59234453425629    1.38608467760586   13.09794909407448
H         1.70799008082275    1.29990277338367   13.71534748619985
C         2.09677201909071    2.94199672698716   15.61788618726875
C         0.75220273928215    3.04363517711025   15.95446873722242
H         0.11614981840192    3.71212457239351   15.38486049336881
C         0.23671725021722    2.30112206458266   17.00247985410879
H        -0.80712108550918    2.38822388550981   17.26363509665761
C         1.06100832856863    1.44489614661711   17.71344156188502
H         0.66193396223828    0.87004125297243   18.53434668175734
C         2.39661987645142    1.31712837633678   17.36275134329625
H         3.03457292675495    0.63684931176184   17.90572501481665
C         2.91500166748540    2.05429679949582   16.31497630956052
H         3.95012916179353    1.92849364134034   16.02807610669425
C         0.84675940771911    6.03179956857136   15.19197365542587
C         0.46948717793653    6.36446388100373   16.41220382145794
H         0.46000493890257    5.62052456288400   17.20627030291763
C         0.08836192602383    7.69707755178838   16.79386688166661
C        -0.15838182670799    8.61567311844071   15.74871166721317
N        -0.40175983937053    9.32526033079438   14.88170142122846
C        -0.07097080266359    8.09786647685305   18.09848585932054
C         0.15144539754499    7.19967361771054   19.16072569799051
N         0.35626299459522    6.43374056894843   19.98966735427426
C        -0.40232060891094    9.42965648639681   18.42078576094358
N        -0.64191614582375   10.52032259005693   18.67821449485751
C         0.19693692642602    6.82643310344344   12.02455354715227
C         1.19122307333481    6.13822927891451   11.23280326907558
C         1.00457615114478    4.74969325423040   11.40032704233434
C        -0.12561851853838    4.54857552876584   12.29275004735935
C        -0.65219987165412    5.83296741675002   12.62152140888297
C        -0.15913528433314    8.27123259659926   11.87344391704397
H         0.63380326755857    8.82212418860723   11.37464300062117
H        -0.35939426845961    8.74560551492404   12.83333903889446
H        -1.06312418456609    8.34817266896063   11.26634183535949
C         2.03666271168443    6.80178736255800   10.18872537486295
H         2.74860357706139    6.10797661574433    9.74950435757219
H         2.58745577953575    7.65434349407975   10.58466785181139
H         1.38341496554532    7.16401649388901    9.39261358913244
C         1.60817364757201    3.67840353485776   10.54470473825318
H         1.05920276423907    3.63746431762374    9.60159979909497
H         1.53999969401143    2.70025163472707   11.01515355709410
H         2.65451226053969    3.87360516789993   10.31459662610507
C        -0.83465786315484    3.24213563892869   12.48030031056583
H        -1.49156344489038    3.26829747697613   13.34692155802479
H        -0.13388471888073    2.41774698954619   12.60044154692568
H        -1.44665922298909    3.03895755993671   11.59923062926648
C        -1.96015473179235    6.12020933917460   13.28985961407525
H        -2.74868756142421    6.12432658875828   12.53474803419402
H        -1.94673940597704    7.09681786254072   13.76977019078006
H        -2.21086185023710    5.36632659630476   14.03367534004937

