67
CSD_code = GETNAX | q = 0 | S = 0 | Stoichiometry = C24H28N8O4P2Zn | MND = 6
C         8.74179268055545    2.99921700001075    5.05179726138183
C         9.26799592620148    4.24140236553427    4.65775323484057
H        10.21999526297171    4.26691541908515    4.14723403636977
C         8.57018458296063    5.40087529492996    4.91292419702822
C         9.08990754153881    6.74474195973176    4.51583955372875
H         9.21570840144085    7.37094084202871    5.39796733777287
H         8.37948262239580    7.24158356197093    3.85690053506232
H        10.04571167851641    6.66142926487052    4.00516655146326
C         7.33643033458911    5.26701757670749    5.55606641350700
H         6.73128191861091    6.13424296407486    5.76660697881128
C         6.90172569466088    4.01644711011424    5.92839498472138
H         5.95906503994442    3.89333434981073    6.43412418026469
C         6.22394783276929    0.17144364634423    3.95318078739146
C         5.39501150734438   -0.21323238763681    2.88102265942107
H         5.84593619259874   -0.41319814910033    1.91962713129740
C         4.03640126425845   -0.33731615823882    3.05812956530421
C         3.12386056913374   -0.73418043544270    1.94329829836920
H         2.48851008139110   -1.56221821771723    2.25192459543734
H         3.68604868850085   -1.02790302009978    1.06095250029664
H         2.47524564821036    0.10116840435244    1.68192257982612
C         3.53320975336799   -0.06583707907360    4.33568440255942
H         2.47692868553607   -0.14431549322419    4.53707110248369
C         4.40292705224452    0.31004962980307    5.32949770886705
H         4.03709773638320    0.54593065289458    6.31615541936791
O         8.36391959273268   -0.02416296264097    6.19122375449991
O         9.94176796526049   -0.57444885464797    4.22569222128382
P         8.88784439838658    0.25069142085755    4.82062080486557
Zn        6.87577497210617    1.06192860122469    6.82585311360484
N         9.43369185441481    1.86923475206397    4.75343781886142
N         7.58454044429173    2.88903717035307    5.70936957700225
N         7.55553495855128    0.29722641867145    3.72947146996210
N         5.72207057297051    0.43425015059579    5.16280676990534
H        10.28154362633294    1.97786674943816    4.21849814965024
H         7.85958839594570    0.04156032525249    2.80059067107562
C         5.00889755734365   -0.87584729463161    8.59853541356293
C         4.48221091238898   -2.11814528220606    8.99156418653542
H         3.52990644395810   -2.14375361494293    9.50150872139828
C         5.17995504938348   -3.27760931681568    8.73616432325253
C         4.65977892750421   -4.62158792698781    9.13226458370728
H         4.53564484326964   -5.24779555941943    8.24993191944565
H         5.36913974090365   -5.11829423586499    9.79243288877699
H         3.70310019668861   -4.53847334171640    9.64129959730575
C         6.41413169527736   -3.14362605715205    8.09385813050267
H         7.01925095758475   -4.01084768083198    7.88321914876943
C         6.84929359229866   -1.89293257636533    7.72247372029380
H         7.79229933928436   -1.76971678978935    7.21740974859607
C         7.52758071562003    1.95074846054233    9.69890538900339
C         8.35648657215019    2.33450817261517   10.77141172241911
H         7.90561277480667    2.53306710432930   11.73312279680179
C         9.71501277176717    2.45947480403883   10.59424811541290
C        10.62752002325107    2.85543639598072   11.70940518237362
H        11.26193514974162    3.68453089213581   11.40191806634828
H        10.06537825763495    3.14722191649616   12.59234799314687
H        11.27700048869975    2.02037226215853   11.96924274029334
C        10.21813511839674    2.18987294895047    9.31626661768598
H        11.27433813337367    2.26919355800849    9.11480122339290
C         9.34845756369106    1.81471114384599    8.32214199746301
H         9.71425823538206    1.58019951938762    7.33514543147777
O         5.38797548784302    2.14821096167329    7.46107015375218
O         3.81025274325244    2.69763956190098    9.42691550317324
P         4.86381848484814    1.87245258949686    8.83140555546795
N         4.31711720041246    0.25413622158073    8.89715319530165
N         6.16654809467678   -0.76551897324923    7.94168923127225
N         6.19605123817273    1.82415313335239    9.92257878586096
N         8.02941972648757    1.68956205732834    8.48891685747066
H         3.46900460283586    0.14545299376645    9.43166703634976
H         5.89200388395375    2.07868107948689   10.85177765710152

