75
CSD_code = GETNOL | q = 1 | S = 0 | Stoichiometry = C34H26AgCl4N6O4(1+) | MND = 2
Ag        4.54286590443875    1.19139924801446    6.02931396577506
Cl        4.48926759848180    6.98639393738048    5.05255709855155
Cl        3.34389700110444    6.44317240549920    8.37053446646876
N         4.60246525978322    4.29762487920817    5.39965963682694
N         3.87811531407447    3.97427089184337    7.40054136533872
N         7.70676032870293    3.73019452540491   12.55101390290786
O         7.40231485837057    4.07152312313466   13.66859087327938
O         8.81874275490135    3.42380737765190   12.18494588821130
C         4.34607560619244    3.33517264463683    6.30792706586829
C         4.29891096589845    5.53307366837933    5.91195387581396
C         3.84833271979294    5.32870616193427    7.18855754565114
C         5.10279588382908    4.06618279119015    4.05986032310497
H         5.70844871957132    3.15267956017459    4.09076217333502
H         5.73600420274944    4.91033308457551    3.78191890837854
C         3.97284370355538    3.90754689264599    3.06985708311108
C         3.23829661755286    2.72961104509321    3.04129681289465
H         3.49299530738611    1.92048348691331    3.72960314534821
C         2.19310332658893    2.57465760043618    2.15029087701970
H         1.62778535147456    1.65585972364790    2.13447492460017
C         1.87463507715666    3.60010635306539    1.27460632709466
H         1.06056612899604    3.47881299438152    0.57738228649979
C         2.60287922440667    4.77695176203364    1.29632052680126
H         2.35849248598065    5.57691952362927    0.61509553850408
C         3.64756721509913    4.93206529989573    2.19190891904951
H         4.21479224185336    5.85039294070112    2.20218040456690
C         3.53687294847713    3.35035157357957    8.65405982566932
H         3.35992717288243    2.28440980588057    8.45348130575139
H         2.61335293546858    3.79448736153651    9.03175111128912
C         4.63912708246752    3.49255232911003    9.67750328580252
C         4.32690144351662    3.73956509851316   11.00919107649908
H         3.29715646161470    3.85952110855634   11.30825986253988
C         5.32900053056460    3.82705658006270   11.95705019088674
H         5.10750656732192    4.01462395172063   12.99644327366864
C         6.64915075971743    3.66910146442465   11.56098007495324
C         6.97872545776883    3.43970028068478   10.23223130322394
H         8.01764569292188    3.33966003622577    9.95636888040668
C         5.96903049051253    3.35004107508169    9.29525531952321
H         6.21777845909159    3.16677379311854    8.25854808205539
Cl        4.59622303875793   -4.60370790934611    7.00548980725141
Cl        5.74146088332539   -4.06018170231970    3.68752299448478
N         4.48311784170533   -1.91489364596273    6.65868308997772
N         5.20735932154272   -1.59136090646331    4.65778916479886
N         1.37767722737581   -1.34741309147200   -0.49175073367495
O         1.68206447534606   -1.68793255954273   -1.60958931675028
O         0.26597027110890   -1.03994855860366   -0.12573899753519
C         4.73946314542660   -0.95236227375513    5.75049004509179
C         4.78660184937929   -3.15029938839970    6.14624415010877
C         5.23710816384921   -2.94581853475965    4.86963288674393
C         3.98279488458742   -1.68355842501110    7.99850600142447
H         3.37700216203546   -0.77014781482539    7.96764128644691
H         3.34972156498904   -2.52781481458199    8.27643067444839
C         5.11272601974899   -1.52477002189491    8.98850721960825
C         5.84687563529414   -0.34659204485122    9.01732179824131
H         5.59190797458033    0.46259730356226    8.32918525383680
C         6.89201742072274   -0.19147544445995    9.90836293213362
H         7.45701843270068    0.72751734361554    9.92438190297776
C         7.21083283413562   -1.21700643061849   10.78382675875997
H         8.02485350362581   -1.09558452098526   11.48108854212796
C         6.48299329447864   -2.39409630947386   10.76185028849853
H         6.72764719527782   -3.19412558928553   11.44290757891586
C         5.43835841158561   -2.54937221123982    9.86622704641396
H         4.87144385457007   -3.46789179752412    9.85575969254181
C         5.54842870777915   -0.96731637776468    3.40428358698696
H         5.72540039344913    0.09860552571933    3.60494755932601
H         6.47188543839435   -1.41141378102032    3.02639398445265
C         4.44598658492227   -1.10941836853306    2.38102635898293
C         4.75792479887540   -1.35648268991230    1.04928376546633
H         5.78759499429583   -1.47655699807165    0.75001497786470
C         3.75562523447428   -1.44389522706343    0.10162459438461
H         3.97689440658268   -1.63155750162415   -0.93780015508153
C         2.43556454120266   -1.28589418417597    0.49796743800306
C         2.10628336360085   -1.05633969178258    1.82675852025058
H         1.06742169020167   -0.95625088000942    2.10283047856718
C         3.11617248558417   -0.96676178481212    2.76352919010750
H         2.86764815421646   -0.78346507269366    3.80029210655760

