74
CSD_code = GETNIF | q = 1 | S = 0 | Stoichiometry = C32H34Cl2N4ORh(1+) | MND = 8
Rh        4.43109409286982    3.35376427702411    4.12065837766263
Cl        4.69686792411338    2.76930863457252    1.88510764703642
Cl       -4.87799927360822    0.10633322529863    1.44489407554626
O         3.30535582087121    5.40237906311368   -1.88565193543338
N         3.44126453255108    4.98770680851188    3.32300069537326
N         2.51726937225954    2.65921691308225    4.04197217549833
N         1.68460709129363    2.08332517336106    1.68377913809648
H         2.55921549037025    2.47671603293293    1.33784213687543
N        -1.43152372890158    2.80334707847125   -1.02933378170436
C         4.00127659509978    6.10791091899669    2.87711448528838
H         5.05351279084603    6.24841873225469    3.08763506094115
C         3.29592271087802    7.05841264852990    2.15976179242905
H         3.79516106835917    7.94886458536894    1.81394812826215
C         1.94612297608569    6.84642753704563    1.89784857357364
H         1.37457736524363    7.57051636582515    1.33951881688564
C         1.35912610941027    5.68321168067176    2.35214816241967
H         0.32312442132982    5.46113960378103    2.15365267351640
C         2.13632096787840    4.76091018192506    3.05662581086189
C         1.66078424929134    3.46674436289720    3.46188960230498
H         0.59519216443786    3.26487333183024    3.45917180069149
C         2.10250740117759    1.29762171835143    3.99463968175931
H         1.12630959187902    1.18113307465114    4.47866749353724
H         2.82235400547911    0.64050008281476    4.47997063279759
C         1.97487809800333    0.91619123194770    2.46317012260446
H         2.94800613301637    0.53057676295770    2.15249407840438
H         1.22240301343158    0.14054270328034    2.33584357844349
C         0.61065154472813    2.33469930743799    0.85134752650265
C         0.83032247766500    3.19935172971172   -0.25276958003584
C         2.04874102906954    3.87269245259161   -0.50225000279116
H         2.88756952228053    3.75533482239647    0.16455397256561
C         2.18766449150626    4.70312164477419   -1.58704773902641
C         1.10697756015825    4.88775433194158   -2.49047643348652
H         1.26458220406550    5.54290501176972   -3.33199254114591
C        -0.06944915519596    4.24606019769066   -2.28928249445128
H        -0.90391750997329    4.36283061243733   -2.96099935013521
C        -0.25469549123580    3.39228608700781   -1.16826299067270
C        -1.66990511692448    2.06194605936694    0.04439081810222
C        -2.96421423550975    1.50122714318187    0.16667392209707
H        -3.65715905294646    1.67101638358228   -0.64041132253988
C        -3.30768080193123    0.79590408382249    1.28206658124648
C        -2.39040577874078    0.64780156076613    2.34151669467394
H        -2.70402730109297    0.13858118857424    3.23887325296391
C        -1.12784789951656    1.15230788884416    2.23455658541428
H        -0.47630690748000    1.06223151093732    3.08747208738558
C        -0.69180314100111    1.83416959860055    1.07213499336457
C         4.45760237777007    5.22706199881297   -1.09582754931817
H         4.29821090994667    5.57965449416680   -0.07002327446554
H         5.23158631588201    5.82864736655972   -1.56859663579592
H         4.77473107042766    4.18084010976763   -1.06925694724326
C         5.78861211155313    1.96492725522987    5.06054412400136
C         6.58287239571421    3.06150269143556    4.53874518701649
C         6.16640451015458    4.25289557689530    5.18437049620759
C         5.12189039294196    3.90974157349333    6.12466157073757
C         4.94752791362701    2.49022828760948    6.09248744501287
C         6.06507798861124    0.52450016242504    4.76913576582760
H         6.19778880881749    0.35906810047489    3.70161595601519
H         5.26440044828806   -0.11967875817444    5.12348237541142
H         6.98764964967770    0.22890721906048    5.27060816647001
C         7.73895816794819    2.89884354049979    3.61196382366576
H         8.03481930881695    3.84559351681639    3.16761970219177
H         7.51223999583522    2.19588571536612    2.81264908451121
H         8.58533967658207    2.50217567220225    4.17485360296810
C         6.83556252325191    5.58540065240414    5.09457175568638
H         7.64198934715287    5.61866776191651    5.82925267470825
H         6.14779130661126    6.39722150619292    5.32130538727629
H         7.27593030744929    5.75076533542521    4.11344273443009
C         4.54165836245317    4.82912599664712    7.14671954752454
H         3.56875606771492    4.48086026352942    7.48416807181690
H         4.43567275544686    5.84088369532245    6.76210453153188
H         5.20660329759129    4.86547333906370    8.01133749461061
C         4.11788036337415    1.71139402111506    7.05673287042567
H         4.63766731761847    1.68292572264622    8.01553485031513
H         3.96766389935627    0.68755002487245    6.72598231932309
H         3.14708484581561    2.17542287876133    7.21835183898512

