111
CSD_code = GETPIG | q = 0 | S = 0 | Stoichiometry = C38H66F4P2Pd | MND = 4
Pd        9.88829761132362    8.11282678245895   16.37267056002937
P        11.75998278157557    8.49731750661981   14.98226587840674
P        10.26134717027863    6.31203190327400   17.85844747398098
F         8.31700586272146    9.98301389462082   14.71696921816172
F         8.99807230398840   10.71945410914423   16.69712646386645
F         7.17149079137570    7.79235035868923   15.91267117192546
F         7.43837826035274    8.79404324063890   17.87524376607259
C         8.69902494989875    9.60166509526617   15.96383169209204
C         8.01495686679957    8.56579667508972   16.66582237089876
C        10.98705901986103    8.67245325745743   13.29326541746774
H        10.42203880975975    9.61016571043448   13.38606299953447
C         9.94299103214527    7.56824291220150   13.08552049851854
H        10.42670816347166    6.60232241127082   12.92820918117930
H         9.30177259878923    7.48992211243771   13.98360889500751
C         9.08362611386545    7.90367637608574   11.87025825940376
H         8.34577105694525    7.11558157281653   11.70754381341775
H         8.54355395070558    8.83366462858838   12.05819443306422
C         9.95940238510085    8.06074914029442   10.62935432249994
H        10.44648365478333    7.10757787962241   10.40698825321307
H         9.34106945245173    8.32638849822323    9.76979287976825
C        11.02470077811963    9.13195019022033   10.84953879828450
H        10.53876729350345   10.09731294578510   11.00804275737011
H        11.65628263834731    9.21677922650000    9.96202546392982
C        11.88502254796025    8.79045723752617   12.06632435363688
H        12.39447588649340    7.84424732298785   11.87657190869292
H        12.64130985537362    9.56425083518302   12.21726708728922
C        12.53721059802174   10.15293308093439   15.37020154170821
H        13.56090471384521   10.19154069458517   14.98426562734786
C        11.76110355501868   11.34102056918023   14.80467105664863
H        11.80438225202551   11.33609136432847   13.71380362617225
H        10.71565605636630   11.27865609230529   15.10865799894630
C        12.33934570502009   12.65797712400876   15.31849114885036
H        13.37260770346200   12.76245145289872   14.97552236677890
H        11.76460133993942   13.48982019535066   14.90663258776924
C        12.30241254191132   12.70139868768524   16.84167477391145
H        11.26795960890924   12.61483230160180   17.17972690084631
H        12.69906865592148   13.65314943071652   17.20063662140082
C        13.11649240646906   11.54483642208438   17.40894964422334
H        14.16060241167675   11.64756210802241   17.10004550043730
H        13.08696653770092   11.56174459849631   18.50033566814525
C        12.56476876201056   10.21804923112007   16.90197822253099
H        11.53395911921358   10.08601379750761   17.27360038361277
H        13.17425523602775    9.39595093566932   17.29014581208317
C        13.25039150285401    7.36498327462939   14.85115674072079
H        13.54383941744547    7.23468183515076   15.90242481420299
C        12.79044170446021    6.00591331920040   14.32565073542979
H        11.87974895439298    5.70603737350076   14.85412478640166
H        12.55212183049456    6.08690601259607   13.26418014987495
C        13.88507785978515    4.95725855005726   14.49281544617986
H        14.11110436422433    4.82249510702532   15.55331228712259
H        13.54361677884060    3.99629232992278   14.10086181129543
C        15.14703471243547    5.40260377045654   13.76030240719943
H        14.94204362308404    5.45908499902233   12.68858616488368
H        15.94401125699836    4.67092647219520   13.90864733481885
C        15.59910837948294    6.77112539079678   14.26099550860163
H        16.48958206893202    7.08889382315881   13.71427203607531
H        15.86635565656194    6.69992500308749   15.31852802774097
C        14.49438729942186    7.81516049234779   14.08750999040091
H        14.27527469184138    7.92808862225213   13.02687043016592
H        14.86099287633904    8.77193664253580   14.46115334545186
C         9.11963403409830    4.88838054637217   17.45009658993408
H         9.50465678268991    3.95826591768008   17.88021514050740
C         7.68694591169671    5.09258121107271   17.93878917277606
H         7.30943113770890    6.05331080514789   17.58684179196387
H         7.65558013731757    5.08797325897308   19.03003530360753
C         6.77380778275562    3.98807000709235   17.41089348656990
H         7.10658569444377    3.02127254641881   17.79928533686410
H         5.75624381843356    4.15944109769980   17.76759557930730
C         6.79434279409166    3.95846291333192   15.88697670160720
H         6.12575578991825    3.17856890819277   15.51708743752430
H         6.44265926170404    4.91807826731091   15.50323678898807
C         8.21505956432682    3.70936709388877   15.39548198938779
H         8.24001941085519    3.70016443129506   14.30383969086209
H         8.55688773214188    2.73181689610899   15.74694281041849
C         9.14906776955112    4.79322708869474   15.91979549992384
H        10.17135471851957    4.58700755002388   15.58781625306570
H         8.84395215208546    5.76911542954030   15.50492283509137
C        11.90748388082185    5.45243893017854   18.12435184249743
H        12.21072021471232    5.19656280281425   17.09909585589863
C        11.98280141774068    4.16990141566361   18.95091933705461
H        11.72889599740783    4.36700802229456   19.99123641858365
H        11.29283666611587    3.41522751567336   18.57168786417832
C        13.40385083966175    3.60761547375214   18.88210164925565
H        13.46204876773320    2.69094986297922   19.47308712242283
H        13.64151328005437    3.35079882268161   17.84652081668108
C        14.42161952339916    4.62009159181101   19.39884099535244
H        15.42894534743324    4.20492242060283   19.32537598449168
H        14.22266565903028    4.82689301018258   20.45309897557901
C        14.33219832395651    5.91944411941207   18.60420108021366
H        15.03415006473268    6.65360571958778   19.00662251583182
H        14.61082204918514    5.72769491756815   17.56518361112548
C        12.91112905570282    6.46934717122798   18.66629500650192
H        12.82701183799419    7.39823512432669   18.09285388461146
H        12.67525964637505    6.69494941903449   19.70730529278636
C         9.67238908801463    6.99939466838368   19.49033479193388
H         8.59099325761430    7.10512683705828   19.32770115677859
C        10.21386381065320    8.42242374385214   19.67674143561499
H        11.28183317708393    8.40387365285637   19.90239570813051
H        10.06907739434149    9.00094203263904   18.74489534366765
C         9.46959984176434    9.10330966420479   20.82130627895603
H         9.85798472114242   10.11296737162709   20.96891376804320
H         8.41223615663405    9.18643415062531   20.56259510426766
C         9.62145425579891    8.29445438982850   22.10738339296943
H         9.06348543481772    8.77286677101398   22.91459128684678
H        10.67499178169656    8.27231409018676   22.39877028960441
C         9.12247849882193    6.86488742708441   21.91183801565501
H         8.05387738466782    6.88289916359359   21.68602840612939
H         9.26037597196130    6.29363227073005   22.83297111659503
C         9.87264710442772    6.18671676191874   20.76519519666202
H        10.93206608041871    6.14022126556045   21.02303833893295
H         9.50588695862259    5.16626250253139   20.63182029148803

