65
CSD_code = GETPUR | q = 0 | S = 0 | Stoichiometry = C26H26N4NiO8 | MND = 6
Ni       -0.00009884072516    0.00002141848601    0.00024860051125
N        -0.44464308471215    0.84098023309586    1.64004606622847
N        -3.76647652995340    1.58384440471675    4.95472594791029
O        -3.83435405768252   -0.32919518963969    3.76956206916782
O         0.72387578031985    1.66307944574341   -0.67377050028079
O        -0.61813761647788    1.92911513024230   -2.43090228785804
C         0.45285751252513    1.58083826864273    2.28791174656418
C         0.23980245412770    2.05945139644975    3.56924525012624
C        -0.96031880348825    1.78418172113551    4.20280177963930
C        -1.91814518174250    1.05381825901279    3.50829665628380
C        -1.60628031016873    0.59444907932621    2.23228236769869
C        -3.25656428700693    0.68950621339631    4.07196009662903
C         1.31517729692739    3.28797343580500   -2.25621937761588
C         2.61724872592584    3.37059483152043   -1.77786842852015
C         3.46849064747333    4.34789079427867   -2.25784450855214
C         3.02295642749155    5.24900205055965   -3.21119030720083
C         1.72539573628088    5.16893038615846   -3.69055379080048
C         0.87364639946514    4.18802263608516   -3.21835605745392
C         0.38768217011319    2.21423137189720   -1.76531989303838
O         2.23904568284495   -0.68795693232161    0.74121562545532
H         1.77690466253353   -1.23038268061064    1.43009490193687
H         2.72334272831840   -0.01143739044427    1.21799194687986
H        -3.36071556736462    2.49104150968688    5.09538295085949
H        -4.68644175084924    1.40730127907756    5.32366412520693
H         1.36650201329904    1.80757628131543    1.75501254209373
H         1.00806038483361    2.63172704077734    4.06526715421905
H        -1.13204860635997    2.11388224731126    5.21724307177880
H        -2.33712305429008    0.01128433047007    1.68873034772073
H         2.95313264377403    2.65816554912541   -1.04018544968753
H         4.48366383662348    4.40628396558997   -1.89290641468938
H         3.68965333276662    6.01312911353080   -3.58498724386996
H         1.38037431868893    5.87094700110472   -4.43627009566200
H        -0.13863639851977    4.10113161938980   -3.58417814300516
N         0.44441061705224   -0.84094520948184   -1.63962143945116
N         3.76515923246258   -1.58222261777299   -4.95580549888910
O         3.83325696232975    0.33032913741836   -3.76983079537131
O        -0.72408928494632   -1.66299214280481    0.67432082049314
O         0.61843736128360   -1.92923076700620    2.43102209478789
C        -0.45316914144636   -1.58082661397186   -2.28734594216685
C        -0.24044656013651   -2.05912074631495   -3.56884979189539
C         0.95938259372920   -1.78342238984923   -4.20276957464130
C         1.91733205835893   -1.05308100039138   -3.50840894333369
C         1.60583202345623   -0.59412543368226   -2.23215709177425
C         3.25545617635690   -0.68830809971924   -4.07248872382393
C        -1.31459899459606   -3.28852592076169    2.25639976265722
C        -2.61667139486112   -3.37155515469729    1.77812870298966
C        -3.46748708537320   -4.34930622315163    2.25793824739406
C        -3.02155654038751   -5.25040691285654    3.21110855237444
C        -1.72398810445578   -5.16993551216955    3.69038427344614
C        -0.87264171821093   -4.18863351136350    3.21828134674445
C        -0.38750927922604   -2.21435950486401    1.76564224955596
O        -2.23902280167114    0.68826549103863   -0.74112713723529
H        -1.77670186497259    1.23048978613732   -1.43006111609954
H        -2.72338437396734    0.01177235659035   -1.21787512510674
H         3.35948649159022   -2.48943123220900   -5.09667229366374
H         4.68498779369206   -1.40545677414599   -5.32497976214875
H        -1.36659127508283   -1.80783609745325   -1.75417828940918
H        -1.00876057043534   -2.63143129927016   -4.06474479055639
H         1.13080815639161   -2.11281844185149   -5.21735822179163
H         2.33678589730471   -0.01102855704798   -1.68867904366964
H        -2.95288922645739   -2.65913496018787    1.04058337396578
H        -4.48267180431396   -4.40801048706005    1.89308434082006
H        -3.68792677141644   -6.01487314446748    3.58479495633088
H        -1.37865551524975   -5.87192701223304    4.43598801042642
H         0.13959827821070   -4.10133982531009    3.58414610036426

