53
CSD_code = GETPEC | q = 0 | S = 0 | Stoichiometry = C21H22BBrN4O3Pt | MND = 6
Pt       -4.16394836427289   -2.81915067671666    8.00826062456148
Br       -6.49002354342195   -2.09228850319622    8.88604606849429
O        -6.01195887309681   -6.49103228115083    7.26607089330254
O        -3.75981165829640   -9.85304303813403    5.59029754163409
H        -4.02884164148679   -9.28883463259774    4.86754303515919
O        -2.64725541201264  -10.02394927813236    7.61926069384636
H        -2.83310187538125  -10.95461721638180    7.48940229015752
N        -5.39831994794855   -3.12790664091834    6.11708763412298
N        -4.94494933720311   -4.85914780069890    8.24302043507996
N        -4.78550154033571   -5.93886353470909    9.00113529414174
N        -4.75911963521690   -8.62602616912138    9.89157707227125
C        -5.74367866045798   -2.24126225086752    5.19706187933525
H        -5.20670760640164   -1.30274713390263    5.21418599572025
C        -6.73869175442077   -2.47355943242060    4.26116703702817
H        -6.98666212467651   -1.71400712828059    3.53758657799180
C        -7.40351059127118   -3.69211585055356    4.27675288196177
H        -8.18319386382155   -3.90585563078479    3.56186797932131
C        -7.05577484981058   -4.62445293191691    5.23611835758587
H        -7.54966827653340   -5.58039668833875    5.30733786170860
C        -6.05180043039850   -4.29955396928029    6.14555551585467
C        -5.67125564719711   -5.19508333787985    7.20804548781066
C        -5.41221800113437   -6.90994441974503    8.41040362646885
C        -5.43165020616907   -8.30597527469984    8.79149457106239
C        -6.08257346488909   -9.24680799426223    7.99241179706848
H        -6.62149994290577   -8.93707389755485    7.11103614885828
C        -6.00535310788052  -10.57854301951120    8.36033164614058
H        -6.48970019711009  -11.33820850522193    7.76441536135350
C        -5.28985439081370  -10.91570657925595    9.49784728514621
H        -5.19809009186981  -11.94328943297529    9.81335150546022
C        -4.69109885536573   -9.89473863379385   10.22852958020944
H        -4.12816577803803  -10.10576963985265   11.12726873917132
C        -2.35838443783548   -3.43253844709365    7.09598257298729
H        -2.31151331234673   -2.91871551454160    6.13199088270175
H        -1.49614347677076   -3.15534789128012    7.70116358975731
C        -2.44632378082333   -4.88751679236140    6.92019521694848
C        -3.03452898461350   -5.44509570531545    5.77899182472430
H        -3.35676261343745   -4.79380129443884    4.97506937886735
C        -3.22084560323316   -6.80848132777207    5.66820932813925
H        -3.70159424499746   -7.19362807299524    4.77473351219756
C        -2.81376986606113   -7.68935995459191    6.67438509863740
C        -2.17474146736208   -7.12962622254080    7.78608786137966
H        -1.84379886458106   -7.79336224552238    8.56923928165948
C        -1.99453230149497   -5.76959236904030    7.90918492527262
H        -1.52301062080080   -5.36667047180376    8.79288321553474
C        -3.29405905700734   -2.75288344984701    9.86506167489165
H        -2.22683366648773   -2.53648910640977    9.87328453775950
H        -3.46769277647427   -3.74736037179598   10.28445718677960
H        -3.81091946546042   -2.00765049806977   10.47256444951697
C        -3.55102253682818   -0.88273949878227    7.69137743297894
H        -2.59497897997245   -0.64140671574902    8.15752323739937
H        -4.30731196981354   -0.20654503934478    8.09502366693617
H        -3.45706767431895   -0.69619507124133    6.61781649677957
B        -3.08078462940494   -9.23954241660231    6.60690321010765

