62
CSD_code = GETTII | q = 1 | S = 0 | Stoichiometry = C30H29ClPPt(1+) | MND = 6
Pt        2.28400478923034   24.33365921136866    0.61742578914908
C         3.08918679261936   22.46737511367452   -0.13280365810986
C         3.80786906768611   22.81800286238765    1.00688280487486
C         3.44473958088370   22.42300223276897    2.37189183205480
C         2.16427799006734   21.93990714387895    2.67796401349790
C         1.80575267537479   21.62221844493431    3.97354073630941
C         2.71927037873088   21.77459940897202    5.00437496389023
C         3.99256015636167   22.24343830482747    4.73239986375044
C         4.35040110347912   22.56706260757508    3.43388520351224
Cl        5.95783387637156   23.15799973454420    3.15635276911126
C         1.56762753043042   26.27247847390038    1.01828308709213
C         2.67481647401482   26.04588751833222    1.88808642518830
C         3.87407696830976   25.69454283384464    1.25452113156708
C         2.50325732986615   25.94636108708055    3.37124122997811
P         0.19918006437041   23.67891921908404   -0.18746379813099
C        -1.12629359865608   24.41813338011943    0.81154720094591
C        -2.22669481668008   25.07972641855376    0.28440046723098
C        -3.18547505342729   25.60026560300931    1.13866850630594
C        -3.05153633805881   25.46330697208775    2.51007375287666
C        -1.94474266823246   24.81642988238232    3.04027465848368
C        -0.98127538382960   24.30196429915158    2.19464413529847
C         0.02931133088524   24.26311366905118   -1.89047213211473
C         1.08188090737467   24.98958327150641   -2.43896243898699
C         1.00361843096691   25.45193685067251   -3.73956564167880
C        -0.12661103703724   25.18616872194231   -4.49658780427148
C        -1.16795544820439   24.44286186908667   -3.96142509406158
C        -1.09280033198328   23.97298197907851   -2.66296132174969
C        -0.29572128622103   21.93038438025392   -0.30616363663969
C        -1.07163663321231   21.31634349994373    0.67220487772532
C        -1.40150988277107   19.97757520867253    0.55097309469116
C        -0.95852365282670   19.24490269820495   -0.53780389917043
C        -0.18228337688765   19.85233315875828   -1.51299370523238
C         0.15329426519550   21.18804989834078   -1.39847669603516
H         3.57366762933925   22.59681347728298   -1.09826058221874
H         2.36470595394501   21.66029264884196   -0.10003860241093
H         4.81916094759570   23.19440447598347    0.88706322825347
H         1.44677125142935   21.78483313936203    1.88156993755424
H         0.81422329863104   21.24933936226425    4.17958086631910
H         2.44644004196799   21.52494724779357    6.01733997920901
H         4.71213752678341   22.36058563147033    5.52739525608262
H         1.74406182817267   26.83961381191645    0.10320245261551
H         0.60463948042884   26.48630270172910    1.47318552034512
H         4.11958889080951   26.13217629846665    0.28667096770056
H         4.73181947486230   25.44414571153411    1.86578615175056
H         2.65442528474359   26.93888212564808    3.79802505842639
H         3.23400636628387   25.27471712653062    3.81754937104215
H         1.49898144503798   25.62105250960870    3.63842775913592
H        -2.33050700223836   25.20146792472246   -0.78332790880908
H        -4.04004936468443   26.11658199118173    0.72926579148082
H        -3.80383341806719   25.86866217759496    3.16859780188817
H        -1.83426469129856   24.71984523132718    4.10999478853468
H        -0.09816212591661   23.81231316231987    2.59437848062311
H         1.97149258330937   25.17114029018685   -1.83469992328079
H         1.82049537278994   26.01377426264881   -4.16600345438036
H        -0.19169625088668   25.54869534163537   -5.51066392518301
H        -2.03831674919120   24.22445114478430   -4.56104712266554
H        -1.89037250665914   23.36915865131550   -2.25222574882748
H        -1.42812557563198   21.88470658943687    1.51918547422570
H        -2.00948201836310   19.50722057302017    1.30847300571253
H        -1.22010700680726   18.20232440264888   -0.62898484763504
H         0.16108414969549   19.28457370493059   -2.36401166152923
H         0.75421497975011   21.66636232582318   -2.16048483131549

