65
CSD_code = GETTOO | q = 1 | S = 0 | Stoichiometry = C31H32PPt(1+) | MND = 6
Pt        7.08281407074757   -0.27091546196159    4.08278741411883
C         9.92000764192167    0.40470583996739    3.05747481909393
C         9.24113689238834   -0.61640994180823    3.93220861708262
C         8.57537438324150   -1.70250592719734    3.37111686857184
C         8.15421225161297   -2.90811194606243    4.09581110210795
C         8.09128232652310   -2.95422856362335    5.49404244861787
C         7.64071526027539   -4.09092963381484    6.13929429380111
C         7.25062419795420   -5.20290686158444    5.41034280988903
C         7.31929180781383   -5.17575456193220    4.02644459765367
C         7.76240166145269   -4.04025699654572    3.37545744224110
C         5.08724147291185    0.42916362775636    4.04417054697269
C         5.13567487429873   -0.76685013755619    3.27515448394762
C         6.06869307012339   -0.76613773843660    2.22459125355131
C         4.43579338492338   -2.01634383474329    3.70969143047662
P         7.47278982982230    0.76070986763564    6.13304457653919
C         6.01115715743229    0.56023595270849    7.19392097560771
C         5.42291221056356    1.58815782203691    7.91775585554652
C         4.31158322199207    1.32343043474885    8.70168617061262
C         3.78863094965122    0.04283687923882    8.76720575619787
C         4.36699269817714   -0.98365976651877    8.03495386822609
C         5.47040487489362   -0.72501272114415    7.24506908923975
C         7.73969467793410    2.53133599317549    5.87155019089624
C         7.63991566219481    3.02266110380297    4.57356086420628
C         7.84058816800839    4.36730439749739    4.32141917935747
C         8.14394448102956    5.22486717165490    5.36712902976796
C         8.26399096194826    4.73608558273749    6.65946521887387
C         8.07016121426223    3.39112723020577    6.91636778689783
C         8.84568553767673    0.31141891249513    7.24391909073722
C         8.66554982475985   -0.55722802726671    8.31636723917530
C         9.74091634668019   -0.89546920230473    9.11921733297184
C        10.99847246010131   -0.37730117313146    8.85699554339729
C        11.18292857189276    0.48672043453245    7.78861035730630
C        10.11414891096677    0.82836488479117    6.98159790652876
H         9.95593786488806    1.37974655589467    3.54182694221767
H         9.42213931912313    0.50481624703285    2.09329902324609
H        10.94945855360719    0.09275475768565    2.87642466542015
H         9.68828983964014   -0.72181649830530    4.91987125790424
H         8.58199750563390   -1.79352055561981    2.28664998081982
H         8.42198741953687   -2.10857681906598    6.08472165588655
H         7.59927902816406   -4.11089521056104    7.21817389858126
H         6.90174921153222   -6.08844819427436    5.91795246299957
H         7.02488806064233   -6.04188323273734    3.45391877195646
H         7.81407745530955   -4.02720736843707    2.29583753426054
H         5.13352110258541    1.38103101805586    3.51418134276480
H         4.43000643400251    0.45173399469406    4.90811158623658
H         6.23677200886534    0.15311655548208    1.66280614740251
H         6.18834578980826   -1.67172110945853    1.64225815643091
H         3.50841816818402   -2.10224480035668    3.14177326967227
H         4.17777137942331   -1.98335437108781    4.76643034191391
H         5.03230614422336   -2.90539480864469    3.50916529459032
H         5.81833212811316    2.59129809339977    7.86089062244029
H         3.85234608228578    2.12285624800152    9.26255051869777
H         2.92465976019315   -0.15589587331460    9.38204312876994
H         3.95385164392057   -1.98036451316502    8.07842888830251
H         5.92285326156423   -1.51355067895562    6.65105583508104
H         7.41766595593810    2.33087445952938    3.76220047157352
H         7.76522798385783    4.74767281248233    3.31407204019838
H         8.29819215540424    6.27501662284478    5.17374698460059
H         8.51489609127111    5.40540573517317    7.46807550607022
H         8.18923562135181    3.00302311324416    7.91872402126779
H         7.68560973151566   -0.95937814729982    8.53023024121029
H         9.59435570941018   -1.56406784775378    9.95364144182606
H        11.83361522072552   -0.64336963985294    9.48588792505285
H        12.16061011149915    0.89557884357828    7.58452195255935
H        10.25547220160075    1.50986097244424    6.15350392983314

