63
CSD_code = GETWEI | q = 0 | S = 0 | Stoichiometry = C24H34O3PRh | MND = 4
O         4.98176573737276    2.99676388565260    2.49104418751988
O         6.18870536263037    0.49080061480022    2.91645377360020
P         3.65959210794883   -1.03870044083918    3.26400921891926
C         2.54127554647844    1.62525029026473    2.72153547879439
O         1.43777691282521    1.94710719696251    2.65982412488405
C         7.24462646954375    1.17445114303473    2.78249871724412
C         6.18308874593425    3.36484944646575    2.41435843919184
C         7.31062899476575    2.54494857370716    2.54378498594296
H         8.28385277897420    3.00092810741913    2.44976454553343
C         8.55227161972335    0.41407262673402    2.87888335742211
H         8.37164600014195   -0.58540726510879    3.26752053667488
H         9.25268467939302    0.93581752462810    3.52579851639501
H         8.99799764713219    0.33050470606648    1.88884859918997
C         6.42600428976206    4.83765668982801    2.15685498488800
H         6.97448313106537    4.96684446647815    1.22613899467328
H         7.01727143711929    5.26521408541184    2.96377441655444
H         5.47440249490120    5.35843876958219    2.09011129793161
C         3.39382364297423   -1.28777131321334    5.08376289413228
H         3.21017042604996   -2.33971189877934    5.32727253266499
C         2.15151754868864   -1.69465605168902    2.47671005197171
C         4.91371026744119   -2.32437556522581    2.77618955631545
H         5.83766357460741   -2.02944949664789    3.28679739636324
C         4.47226856889694   -0.82979644988618    7.31476475041722
H         4.31890320885700   -1.86179123031485    7.64232113169037
H         5.37568052023295   -0.45700698436345    7.80191471702987
C         4.65371159480666   -0.80184913118002    5.80039522608258
H         5.50959820614957   -1.42046204540263    5.52134719735382
H         4.85821362881679    0.22726302890186    5.46846176889460
C         2.19908791774176   -0.43633465481338    5.51236587757771
H         2.38713831863270    0.59793113654062    5.20053057413543
H         1.29078501092393   -0.77544393531847    5.00869208707028
C         3.27133470990978    0.01461272237233    7.72775392512894
H         3.44976777459841    1.05545939458634    7.45026326805547
H         3.13928081851148   -0.02833301046270    8.81087050214123
C         2.01163079076739   -0.48204355826771    7.02580734287274
H         1.80061550903219   -1.50819982824623    7.33833268781187
H         1.15757430246236    0.13556620227910    7.30963442521069
C         1.82674481686603   -1.16257557444817    1.23196486464171
H         2.45275499113923   -0.37375599972318    0.82725879553758
C         0.24367020239731   -3.15003434385005    2.31809755524922
H        -0.37741688984770   -3.92446951772332    2.74485436159804
C         1.35076107520170   -2.69630211749650    3.01411352806546
H         1.58312918182387   -3.12327537988053    3.97833059063233
C         0.72519257110414   -1.62128150079103    0.53427755961232
H         0.48160839273139   -1.20133316395974   -0.43044234781545
C        -0.06997742158334   -2.61669884658125    1.07916252423942
H        -0.93547006502663   -2.97412249327399    0.54107568537109
C         4.57172948116817   -3.76646316929112    3.13561307311979
H         3.64349532982787   -4.05809579626657    2.63846741013214
H         4.43169555635569   -3.87395627289074    4.21314914385541
C         5.13876037285665   -2.19370883662475    1.26965584831069
H         4.22003023825791   -2.46172624592016    0.74017319686639
H         5.37593497906860   -1.15130079497436    1.03020415479479
C         5.69957685049490   -4.69301566623066    2.68140837147269
H         6.61653222348598   -4.43620774106709    3.21770942870935
H         5.44762852352699   -5.72692534321338    2.92783119562264
C         6.26744226926671   -3.11458294259237    0.81865445315620
H         6.41439663689882   -3.02435057510870   -0.25958906562569
H         7.19743459533309   -2.81827700983302    1.30937318029989
C         5.93945784535002   -4.56037310211619    1.18058904520791
H         6.75682998499517   -5.21752539578263    0.87616934777590
H         5.04096548797978   -4.87174337023844    0.64263624143613
Rh        4.27964247451168    1.08475344792751    2.82056976946901

