140
CSD_code = GETXAE | q = 0 | S = 0 | Stoichiometry = C72H51N9O7Ru | MND = 6
Ru        0.74153113122318    8.18901705315939    6.49222512970544
O         0.02717297769234    5.29365439604240    6.25457686592108
O        -3.75495975903323    4.63806172423976   11.05601933648899
O         2.80969946739636    3.30037504425722   11.79314900371964
O        -2.83015284871372    6.51548447232723    4.19684277623381
O         2.72838722905734    3.34240668149670    1.47136329289140
O        -0.82390898995395    0.68050664916741    9.27253798834639
O        -1.82571596578836    1.40351202224585    3.33976558425649
N         0.65190118583661    8.17717936435542    8.52888148344031
N         2.72408345684047    7.68645720290812    6.58148222849219
N         0.87594478412936    8.35420960834120    4.46757408495633
N        -1.21249374612755    8.77760017593923    6.41424388679167
N        -2.48206853407129    6.32385945385237   10.17442908746344
N         2.53732557892077    5.21820914131667   10.57397472206724
N        -2.15328422446889    6.99111472953433    2.07362912927201
N         2.73312315274133    5.20748637271869    2.80434037622025
C        -0.44634470846820    8.43490885827264    9.28526760714767
C        -0.09014300546859    8.39557917451317   10.67747627220960
C         1.22872349537507    8.08769443375019   10.73807682516934
C         1.68053840040317    7.92475220554381    9.38280516321854
C         2.96863067291589    7.51110257307218    9.01965347247740
C         3.42471225770788    7.37874210796147    7.70642785855230
C         4.72262827597117    6.87652569101070    7.34185332844963
C         4.78097216493747    6.88328823342675    5.99017251746680
C         3.52348858682686    7.39963277621981    5.52012534778699
C         3.19128275419230    7.57317426730209    4.17679960695755
C         1.97356835313342    8.08428439675400    3.71264518919319
C         1.68130195407481    8.35290567404175    2.33152043105792
C         0.39039175172286    8.76427570513340    2.27646377646586
C        -0.11861675133886    8.72969788949164    3.62110039557422
C        -1.44399578253609    9.00135456943190    3.98193914010078
C        -1.93677841269028    8.99717123326278    5.28697358274387
C        -3.32005162803918    9.19619789533165    5.63283111319047
C        -3.40929405564144    9.07566665254202    6.97532849026747
C        -2.07752107330624    8.82257092589485    7.46191329765841
C        -1.74214325671349    8.66378624550278    8.80555883071015
C        -2.85007604878780    8.67026521061406    9.79100619664584
C        -3.22849052354056    7.47594564723115   10.42750237393227
C        -4.30741271477675    7.48050507160122   11.30541226164422
C        -4.99162559285595    8.65408725258677   11.56241200532050
C        -4.61388107535356    9.83623943730157   10.94884523785856
C        -3.55184856366515    9.83610195956730   10.06214282978602
C         3.90517187713289    7.13027794473493   10.10504931417421
C         3.68109354234364    5.96485858218173   10.85576898147983
C         4.58654269515289    5.60107667007294   11.84655664622723
C         5.69589663736018    6.38806369523036   12.09588559092325
C         5.91983169636420    7.54051055881796   11.36215120076017
C         5.02791692091232    7.90186460182419   10.36799550024797
C         4.16818902224716    7.08816159753386    3.16727918291300
C         3.92241715863295    5.87253573066723    2.50606536522123
C         4.84155624786700    5.39115456790584    1.58157723249000
C         5.99090224893559    6.11164379142524    1.31069788089582
C         6.23880550692593    7.30960264589846    1.95858322788707
C         5.33004747413355    7.78951825567191    2.88663556564672
C        -2.39953369373207    9.27185305649468    2.88476898608409
C        -2.70182208301561    8.28066508841811    1.94526698349506
C        -3.52595383278467    8.57499175368881    0.86564366481936
C        -4.07704249014295    9.83531139209422    0.72976710541655
C        -3.81441453969787   10.81004740978583    1.67819538830528
C        -2.97975983538705   10.52724749234405    2.74369574697468
C        -2.72570896681798    5.03495503885509   10.55339556284451
C         2.14824703008456    4.00440177591152   11.06292141203508
C        -2.21610963390127    6.21473366032041    3.20017985232709
C         2.16821377116546    4.10645669730839    2.22845007678506
C        -1.55517182793573    4.13157210007192   10.31767372581458
C        -0.27319468418061    4.54031961600673   10.66183152243826
C         0.77765282967950    3.62802603292775   10.59247830346730
C         0.54950228237782    2.34019940530135   10.14457891637941
C        -0.72767810775867    1.94254177061111    9.74078172791373
C        -1.78516901785742    2.83894135784277    9.85896549539406
C        -1.40596974870744    4.96658093970014    3.06064651100207
C        -0.06957173029233    5.09132343883324    2.69924426461050
C         0.73113233835240    3.96044717972512    2.62275186662273
C         0.18604985883643    2.69860553959658    2.83324237781308
C        -1.15936480483096    2.56778734894677    3.16764799466739
C        -1.94045520187453    3.71940131859462    3.31891242089032
C        -2.04760601137799    0.23059634239109    8.72037308500475
C        -1.77258606875737   -1.11901170987265    8.06199368435234
C        -0.80374029502220   -1.00375543673567    6.88286166453762
C        -1.46164520129963   -0.44345868709606    5.62459971351316
C        -0.46174916445737   -0.28300949405764    4.48048687561234
C        -1.16165684250939    0.16214325415130    3.19524308139830
N         1.29482673818186   10.21395939101164    6.62146257808768
C         2.24344582415928   10.62672886909812    7.46622698332206
C         2.61069848125406   11.95343667175286    7.60773046446113
C         1.97609784033648   12.91591771971882    6.83949609992491
C         0.99646895851011   12.49344620560606    5.95539773426852
C         0.69012206154109   11.14605938458093    5.87994048601388
C         0.27193953953916    6.41248615689053    6.36053630835929
H        -0.76367497599843    8.59425745122095   11.48873137934939
H         1.84649730198219    7.98312270328557   11.60902160205721
H         5.47308843836820    6.55251702342073    8.03574038673030
H         5.59057329909029    6.57133166669499    5.36009591343479
H         2.38209348545809    8.25002890005668    1.52523619408437
H        -0.16667013018021    9.07160065097303    1.41242395701424
H        -4.10990225339313    9.36946765386099    4.92975809791712
H        -4.28559234999869    9.14186286560446    7.58933317597523
H        -4.60406168838410    6.55876671728262   11.77718141745210
H        -5.82469597454708    8.64267278789671   12.24879785695531
H        -5.14581871151260   10.75299395538061   11.15383327186493
H        -3.25039637908620   10.75056831170234    9.57133245492267
H         4.41414813821987    4.69916980021353   12.40952400296002
H         6.38995978153728    6.09598224091353   12.86924868597368
H         6.78618909443793    8.15387691664415   11.55845070910294
H         5.19651203246583    8.79611764938286    9.78446045966310
H         4.64456207598868    4.45639767127382    1.08333568359841
H         6.69796959911247    5.73075953760268    0.58937321788429
H         7.13735149417792    7.86887087254844    1.74593328991601
H         5.51410564477160    8.72254013474885    3.39977129900699
H        -3.73650285872192    7.80518950626677    0.13703922749161
H        -4.71704763511570   10.05375748377092   -0.11154609748698
H        -4.25138904419051   11.79232715263497    1.58135358949651
H        -2.75343579944990   11.29225634727117    3.47271629091208
H         2.73659517560777    9.86931893182669    8.06100827728324
H         3.38235932985653   12.22238154967049    8.31176816199048
H         2.23677911006273   13.95952338154088    6.92590850021013
H         0.47103300759517   13.19719012931345    5.32910224643391
H        -0.07500119661159   10.80802122758856    5.19306007204800
H        -0.10433732858688    5.53335676735349   11.05492123048220
H         1.35860097368153    1.62845595088414   10.10323352028604
H        -2.79844737821226    2.55752775035770    9.62026746724697
H         0.32923807035188    6.06921945880134    2.47450002739209
H         0.83828771403862    1.84568552332494    2.73186094316366
H        -2.97333313848480    3.61413283006712    3.61034582520151
H        -2.80087013855998    0.11989260137935    9.51192531473984
H        -2.41748284999437    0.95345004445222    7.98319082914698
H        -1.33946574833714   -1.77495590317954    8.81847678993400
H        -2.71864834955318   -1.55083505901150    7.73210435624715
H         0.03093225659706   -0.36742347559683    7.18056369436486
H        -0.40266427765162   -1.99417472402402    6.65720748637127
H        -2.26256188198014   -1.11664988650082    5.30855158316027
H        -1.90978529743094    0.52922562004441    5.83134860935669
H         0.29617788099733    0.45123624840569    4.76047956421701
H         0.03947144013082   -1.23300974844114    4.28524580210224
H        -0.45980982803649    0.19120338383939    2.35445041005005
H        -1.96089859253870   -0.54502185394841    2.95226056780750
H        -1.65460411215514    6.47735059117446    9.61210024816669
H         1.92835399742956    5.63642594962957    9.88177994828104
H        -1.84473196356534    6.54425185232827    1.22228129800183
H         2.17208537087527    5.67527795601734    3.50618867836025

