64
CSD_code = GETZUA | q = 0 | S = 0 | Stoichiometry = C24H33Cl3IrP3 | MND = 6
Ir        3.30677652669835    0.63792341469658    3.96622096360286
Cl        4.99036333596765   -0.60879476410117    5.06035268003846
Cl        2.36856260503714    1.12137194941701    6.08630535041514
Cl        1.62824153224344    1.80023113456167    2.77056695933153
P         4.38047779210111    0.06419514759940    1.97737108917839
P         4.40079745805056    2.66952903051543    4.35232753876866
P         1.80009284428745   -1.14920607229239    4.12800201137645
C         6.00739133643047    0.81454492225112    1.64550363952081
C         6.29138029606847    1.52928854308451    0.48852500272583
C         7.56908495284343    2.01382343274141    0.26981186092922
C         8.56972150113708    1.79582133398646    1.20046247265619
C         8.28716133465496    1.09809148871693    2.36324973888641
C         7.01368332226577    0.61018492798267    2.58632630948797
C         3.44448936701721    0.30024839980222    0.43001235885043
C         4.83763347804235   -1.70433648838307    1.84988016361783
C         5.22419959385902    3.54831797982001    2.98668056157217
C         6.54629943088514    3.96794832463857    3.02580285875434
C         7.06917234387572    4.70445485355616    1.97698869584757
C         6.28122926162605    5.02414220331698    0.88523477031149
C         4.96592033535539    4.59143333256717    0.83331353573514
C         4.44080877671231    3.85455592150547    1.87702125189200
C         5.61563788363968    2.61995210165088    5.70692826612445
C         3.27889573786688    4.00408592733396    4.90298117724601
C         1.39682476631639   -2.13591413839867    2.64968682830746
C         1.80443361542929   -3.45452950870810    2.48258027028622
C         1.46667841488588   -4.14707013201126    1.33195348661779
C         0.72787095120493   -3.52959620964777    0.33695905799097
C         0.32920730019884   -2.21129901823461    0.49168940108550
C         0.66451422123315   -1.51650409415534    1.63919774947134
C         0.11372096503789   -0.66955638517743    4.64485604926344
C         2.22836715442035   -2.38233233542568    5.39819990919747
H         4.02283979134041   -0.05700744730859   -0.42124136015598
H         2.52075929607590   -0.27126100173550    0.51123512663298
H         3.18619577154597    1.34990689141412    0.31072580383183
H         5.44477501225781   -1.85820020255231    0.95799743826845
H         5.40306652603041   -1.98636984810990    2.73563322332601
H         3.93306193116875   -2.30762129501404    1.79115842780653
H         5.96564581911892    3.62503335311472    5.94120084965503
H         5.11032849602129    2.19343050184635    6.57370484378245
H         6.44740885708499    1.97098250200725    5.44015338020890
H         3.84391513174432    4.93268229154064    4.99085036436307
H         2.47769598169644    4.12563616095754    4.17608262678888
H         2.84568054952359    3.72958753874493    5.86303694607077
H         2.30204775586846   -1.84936049067189    6.34622029332396
H         1.45477494272973   -3.14760944045295    5.45924683429429
H         3.19862323455706   -2.82631870470283    5.18447615284283
H         0.15253183065806   -0.32260573108063    5.67575410519107
H        -0.54682609578276   -1.53279015551347    4.55818378473583
H        -0.24948474759143    0.14255643202299    4.01835093477526
H         5.52230125661230    1.71862138319930   -0.24389650197120
H         7.78242987862210    2.56458247404152   -0.63466803089603
H         9.56587597770719    2.17298215248845    1.02177749302813
H         9.06285339514379    0.93051310320636    3.09622717748047
H         6.78561060853429    0.06740543025749    3.49279080415966
H         7.17343974391614    3.72267290411660    3.86911688017587
H         8.09757765340420    5.03322775983979    2.01602028907249
H         6.69268867960775    5.60659233845807    0.07394140469818
H         4.34960041257198    4.83354817214855   -0.02050065394806
H         3.41576340519787    3.51052253371690    1.84493903613963
H         2.38394619187990   -3.94564834561879    3.25019501982744
H         1.78190394937270   -5.17364327038517    1.21322616307062
H         0.46438095207319   -4.07401545358010   -0.55767846033044
H        -0.24370522159408   -1.72437692021913   -0.28397535762208
H         0.36585459749575   -0.48446083936467    1.75882295228946

