51
CSD_code = GETZAH | q = 0 | S = 0 | Stoichiometry = C18H23N3O5SZn | MND = 5
Zn       13.83840555309690    1.88027541039085   11.88097852724758
S        13.23912101997582    3.63137701244686   13.56849069083055
C        10.40323065827856    2.02282796653449    9.39407195382415
H         9.95478205764080    2.95523147881514    9.73069904358892
H         9.62557521698338    1.29775941865359    9.17800103548938
H        10.96462215431975    2.23905464535468    8.48748082795868
C        11.36215696515873    1.52629635807207   10.45373160161377
C        11.16310921407879    0.23726824251504   10.97279716403007
H        10.34002812775527   -0.34841774101014   10.59541168079652
C        11.97571140272275   -0.33391473894431   11.93904624058185
C        11.63264574497094   -1.72652354733072   12.42552950173515
H        11.53163217858292   -2.40402733146585   11.58165005319724
H        10.68496416022823   -1.70527873490012   12.96066722031310
H        12.41226590732466   -2.08884802016986   13.09072275115370
C        16.83441544083429    1.51860757022916    8.88866418630795
H        16.05300753281961    1.58577937405183    8.13706558417683
H        17.39182174828058    0.59429862818253    8.75702805663097
H        17.52238269080462    2.35248308966345    8.76712447162864
C        16.21544953229037    1.56656075078746   10.27041825267599
C        17.06799390746230    1.41131334249209   11.36229587327334
H        18.11977117002095    1.26252827923833   11.17504777201231
C        16.62691248267590    1.43806875758941   12.68381473117611
C        17.66558987008678    1.24859282500789   13.77163896240377
H        17.20249154608502    1.36254172926896   14.74815220113421
H        18.46268255967183    1.97908786142080   13.65938518201219
H        18.10072519202142    0.25444722413651   13.69364451296902
C        13.33708302328026    2.71632121956977   14.96922499126772
C        13.61373379263280    3.47163085553986   18.38541205577691
H        13.63591786738302    4.56672142368872   18.34809648834308
C        13.70793861696955    2.86034626284240   19.68844949578918
C        13.82955445352018    3.66227682219192   20.82455013004572
H        13.85139089401631    4.73737690090893   20.72048562909581
C        13.92364865465984    3.09899614864818   22.08009647357269
H        14.01799451504815    3.73111255056172   22.95338501338280
C        13.89805608119287    1.71540129867950   22.22911461679041
C        13.77480886439732    0.90434478416174   21.10001715574509
H        13.75461774563662   -0.16515563479592   21.23547020011924
C        13.68170127028843    1.47041280303364   19.85069734851483
H        13.58578878149889    0.84975794309260   18.97477638797785
N        13.26987854559584    1.39629500108785   15.04212336981924
H        13.42461589165289    0.97027015939816   15.94345792666965
H        13.27500118508617    0.83828001473701   14.19337224313358
N        13.43644289486986    3.40393740801059   16.13539926907799
H        13.45938516959383    4.42231026443780   16.06997364856397
N        13.51330405332697    2.77894277928714   17.31783522883640
O        12.26835464428484    2.31519134045965   10.80964687822145
O        12.98447427676907    0.22487284214053   12.47561927605037
O        14.96866916564640    1.74483500750243   10.33329175425112
O        15.43314730650977    1.60333165218038   13.05024986158845
O        13.98772806557051    1.11682358282707   23.44102358392739
H        14.06817020645937    1.78077671872994   24.13687289458662

