82
CSD_code = GEVCOC | q = 0 | S = 0 | Stoichiometry = C33H42N2NiO4 | MND = 4
Ni        0.23130163689602    0.63008932973696   14.62650045441335
O         1.32175936152064   -0.87957003360102   14.60983676021747
O        -0.66763169605609   -0.05738642694836   13.16425411181603
O         5.39419160278584   -2.62897781455854   17.84136284146073
O        -4.91076590688981    1.77061573707117   10.17148974147224
N         1.12628338750225    1.31620928537477   16.09790917327556
N        -0.92788247882198    2.22351222658537   14.67187763972944
C         2.10274556976261    0.78399636846941   16.76570111548424
C         2.71567400821047   -0.45779043766028   16.49157116038526
C         3.76524544612829   -0.88821449963729   17.33656242246139
C         4.36988271444845   -2.09049857656518   17.10715039108315
C         3.92971889888434   -2.88904247236709   16.03082755001719
C         2.91728966505616   -2.52331932933157   15.18717812618990
C         2.26691996365422   -1.25463359093837   15.39514720792457
C         0.63009297779591    2.61600088117381   16.51960541361616
C        -0.81978552037950    2.72280121250412   16.05312233495647
C        -2.33792767917011    1.88551273671905   14.39016247335121
C        -2.55896133657665    1.37602801568216   12.99100439021634
C        -3.65636705784622    1.83755170144814   12.27258105132286
C        -3.86623403278373    1.39104528902205   10.98386242971850
C        -2.95260609030832    0.49964173950078   10.42113303362989
C        -1.85860385512476    0.01901454606403   11.10761575553850
C        -1.65784846928260    0.43715607068137   12.45693520250502
C        -0.39879879541637    3.20220999260089   13.68680381155319
C        -1.06336521185573    4.55714475198437   13.70472883680457
C        -0.59647695118576    5.57565728604781   14.52929451234107
C        -1.21676939987676    6.81304564747047   14.54576338222525
C        -2.30934077346276    7.05283529682041   13.73068600149222
C        -2.76538995480532    6.05478434373307   12.88615592412379
C        -2.14420489111236    4.81859468289069   12.87008302537658
C         5.87448309245887   -1.89233982372769   18.93515516617479
C        -5.86082399692452    2.65682784843743   10.69711673901852
C         2.45438012027796   -3.41901415164053   14.04861820873525
C         3.25185226073902   -4.72421077491880   13.96389980378251
C         2.62100419965597   -2.66982533353803   12.72103876631152
C         0.97799048301868   -3.77385737861338   14.27013479358278
C        -0.87278739409684   -0.94491713146568   10.46499387857657
C         0.52312886330851   -0.30640346225102   10.48020939481346
C        -0.86170314237794   -2.25082209908480   11.26734002095673
C        -1.22537993816748   -1.27818294139857    9.01210098119568
H         2.49187574397409    1.33386289108881   17.62646284230052
H         4.05953509793984   -0.24283054241691   18.15005435011965
H         4.44511254706943   -3.82692603072927   15.91116342082658
H         0.69120797804564    2.73255083688081   17.60963545842766
H         1.24472250052314    3.40430439599851   16.06564390444000
H        -1.43192791014132    2.07694098563747   16.68997103777355
H        -1.19945264666769    3.74883581054757   16.13469827555644
H        -2.62718485161210    1.10490233806104   15.10829023331890
H        -2.96915268841399    2.76781949003969   14.56504150275365
H        -4.33227332183289    2.53297215609011   12.74863924120226
H        -3.14796608415829    0.20026186143585    9.40596167366294
H         0.67325677309669    3.32013414310116   13.87223780429289
H        -0.52808925102781    2.75617263205693   12.69682418930132
H         0.27206878811183    5.41272921958150   15.15276441791216
H        -0.84248426833744    7.59216948133944   15.19346105513445
H        -2.79462170775249    8.01723664487626   13.74459999605194
H        -3.60356494161986    6.24293083865324   12.23139980152832
H        -2.48903767697376    4.04839848041599   12.19645190497679
H         6.67360379922874   -2.49064102079345   19.36998598612417
H         6.27893548988016   -0.92339637304358   18.62227801523070
H         5.09350436328756   -1.73174949589945   19.68695518886290
H        -5.41385780180947    3.62351579701003   10.95919860414596
H        -6.35930856436782    2.24081555395515   11.58008750682548
H        -6.59718923112881    2.80730839377667    9.90879644723457
H         4.30605227833516   -4.53057248802497   13.77898805735045
H         3.14967471031531   -5.31132110049319   14.87378611419218
H         2.86978088334406   -5.31946019733715   13.13698704190824
H         3.66012904562292   -2.37804098353564   12.58057185290866
H         2.32558373092956   -3.31091288209211   11.89412686617604
H         1.99948387410946   -1.78154322132500   12.71140315303749
H         0.85795291920644   -4.31495359006669   15.20701259142785
H         0.61946207752621   -4.40095658195388   13.45737636613193
H         0.37356117663555   -2.87285221458029   14.30496797682537
H         0.82534177604226   -0.08362415608825   11.49998205515764
H         1.25172118713822   -0.98603607614954   10.04404195087523
H         0.52017282553520    0.61724136733080    9.90343712135273
H        -0.57188556250291   -2.04884852329850   12.29249144763648
H        -0.15552396862663   -2.95345938326128   10.83107053263568
H        -1.85186942687801   -2.70226802021588   11.26222756224373
H        -1.23184319551241   -0.38515361806450    8.39096316618239
H        -0.47643396122930   -1.95978351186910    8.61279045383159
H        -2.19436218486461   -1.76724201842699    8.94435880428678

