47
CSD_code = GEVDEQ | q = 0 | S = 0 | Stoichiometry = C16H29FeP | MND = 9
Fe        2.33630937738085    2.32307582659401    1.55351442320629
P         0.61203950766553    2.21846888927717    2.90227854766802
C         2.16300772736476    0.29528273182008    1.20891725584875
C         3.34458659667500    0.78796713946055    0.64486146189019
C         3.40709412737412    1.90317800490645   -0.21050985634189
C         2.33569177690376    2.78190987758917   -0.45110596795722
C         1.02281242365967    2.56222466339880   -0.02616723057571
C         3.67041001001077    2.28874459500561    3.12141764700450
C         3.89578408956685    3.36875056201835    2.26367412335329
C         2.88165653063713    4.32538443945117    2.12177552257453
C         3.00959430102971    5.39135964055803    1.16035827312946
C         2.26231090851824    6.49367751064862    1.12330328511940
C         0.78967186450810    1.53460375777893    4.62339077259558
C         1.44253700430124    0.16226218920112    4.64307732398310
C        -0.79760016656174    1.17796290262812    2.27678362150129
C        -2.06914914843070    1.06116750412438    3.10979493892649
C        -0.29226038100621    3.76517706788254    3.39607265910829
C        -0.74183961537532    4.57284140337068    2.19027186818441
H         4.29735529214820    0.40404802945806    0.98940956106957
H         4.38290214502793    2.19375787153274   -0.58076516740103
H         2.59655798518562    3.74940271479101   -0.85963054169121
H         4.75255073626730    3.38847292735133    1.60372269348761
H         2.27075636656174    4.55281810235997    2.98481041181390
H         3.79272673661150    5.26363801283519    0.42249796386700
H        -0.19411737031893    1.49911580104140    5.09697579515122
H         1.31310496374173    0.08394834628813    0.58266591185465
H         1.39528373834756    2.24291463903648    5.19441657957519
H         2.29823955872217   -0.45369516437118    1.97535848458876
H         2.40679921458510    0.20854470895731    4.14546814117768
H         1.59064456311039   -0.17885643038172    5.66649219729550
H         0.82165836825568   -0.56568711837995    4.12728385737684
H        -1.05039781012416    1.58164380618750    1.29617550618733
H        -0.37699959727239    0.18398284101788    2.11802963931927
H         0.36025328102018    3.40729353706438   -0.14177504836769
H        -1.14333132212598    3.50120696763283    4.02851974431813
H         0.39200327311459    4.36017292747523    4.00624256580434
H         4.42922918273871    1.52229492038871    3.18165576633595
H        -1.20780290402238    5.50628448258194    2.50283639892414
H         0.11663670733307    4.79987731888851    1.56475969259410
H         3.19043679268477    2.48430590961483    4.06707580496624
H        -1.46328316720936    4.01370500185729    1.59966799430269
H         1.48379652165021    6.67407668864552    1.84543602269534
H         2.40381243739717    7.25486379331988    0.37541211536475
H         0.53304823416806    1.62917070087977   -0.24715075980397
H        -2.77146430916194    0.40440926719556    2.59776090599133
H        -1.87421074689957    0.63311014644695    4.08945781286320
H        -2.55424580576639    2.02504054456607    3.23888128112864

