66
CSD_code = GEVDAO | q = 0 | S = 0 | Stoichiometry = C32H26ClNO2P2PdS | MND = 4
Pd       11.65366359185174    1.60001796744200    7.70318201911847
Cl       11.19064961843020   -0.46784900377418    8.45182628761423
P        14.45869447564073    2.86011269225157    7.58196779517030
S        13.72039953656983    1.36037466942807    8.66621921265937
P         9.21610483647143    2.61734082460412    7.81617967743599
O         9.75635818675360    1.69711265403154    6.77167166438840
O        10.78269242128087    5.13745576050652    5.78093619555847
N        11.95842083094117    3.37417486231660    6.64961409956503
C        12.74769310221743    3.12587748525150    5.54004500781050
C        14.08676815947624    2.79322566654792    5.81757422682910
C        14.98435343616608    2.47361542518371    4.81132378325963
H        16.00586732875388    2.21647509759439    5.05640400644872
C        14.54553830306016    2.49584029258130    3.49949235904664
H        15.22631664070924    2.24266616238087    2.70108724495937
C        13.23217386166244    2.84630659935527    3.20929361538262
H        12.90432206113046    2.86453748231335    2.18026677813946
C        12.33314895617558    3.16782731762202    4.20794891232932
H        11.31618958639117    3.44521845219070    3.97907088210022
C        16.26976832609697    2.82283790615976    7.71484085919358
C        16.90273946701003    1.58994944016703    7.82689852122015
H        16.30570495170010    0.69036318823658    7.87689075676462
C        18.28297464252333    1.52777493353912    7.88471506309778
H        18.77430115016680    0.57040315820334    7.97158161481216
C        19.03175611920690    2.69254738052723    7.83262375444564
H        20.10937426797659    2.64349698367168    7.87916610087799
C        18.40060372777450    3.92142198957655    7.72467562534877
H        18.98508433230218    4.82874063435563    7.68802782232715
C        17.02037480941557    3.99109046974748    7.66384455430987
H        16.52551836583900    4.94832937037775    7.58292110489797
C        13.93114359151572    4.49761671232140    8.18409417419452
C        13.97346611189067    5.61509306859055    7.35735661730181
H        14.32881203589545    5.52146984502214    6.34044309887125
C        13.52524928143379    6.83212122677660    7.83542699680506
H        13.54225794558379    7.69840308053278    7.19187703784155
C        13.04347461639227    6.93807308942978    9.13109529441667
H        12.68803342799429    7.89002660914559    9.49590678702600
C        13.01114603847775    5.82593938832126    9.95682034940836
H        12.63656676009242    5.91014765431973   10.96663708516051
C        13.45324363014755    4.60265272590105    9.48418531785395
H        13.43295816082792    3.71892466310597   10.11179916982553
C        10.97824570194729    4.29026274688953    6.63505827986686
C        10.12365953718962    4.22586091482164    7.90701767613392
H         9.41971895201018    5.05894557997659    7.92268770473062
H        10.77539462162090    4.27385083761651    8.78691284254225
C         9.18374217493166    1.86126835049855    9.48275303365970
C         8.08161795521231    1.09128898686532    9.82478160220167
H         7.24477623877826    1.03059322772730    9.14185792481612
C         8.06865214979719    0.39441770609707   11.02116601770052
H         7.21460797670170   -0.21386623631952   11.27858286925862
C         9.15668174379322    0.46378205195086   11.87324049858762
H         9.15317296452757   -0.09260516971857   12.79831801989479
C        10.25945843063023    1.23387042759226   11.53587058996949
H        11.11251146364985    1.27592946825284   12.19612870119215
C        10.27961673013602    1.93220935771905   10.34184866359844
H        11.15944170711277    2.53229906004827   10.08161775901143
C         7.51134890804824    3.05298812344784    7.40296237764718
C         6.75955440066599    3.85616203604730    8.25154907053059
H         7.19370247503084    4.20512505326942    9.17890010621154
C         5.46411419649435    4.19092805408637    7.90615317456070
H         4.87364262198441    4.81379000453518    8.56180489124228
C         4.92250105907688    3.72696946463109    6.71627935395910
H         3.91039505484435    3.99220618994667    6.44880618612824
C         5.67238789622528    2.92528867922358    5.87161779311933
H         5.24642272611862    2.56524461384456    4.94702754259530
C         6.96959680654196    2.58610163253439    6.21487344806384
H         7.57632881286179    1.95903491250654    5.57735239896947

