71
CSD_code = GEVDIW | q = 0 | S = 0 | Stoichiometry = C35H26NO4P2ReS2 | MND = 6
Re        8.77411643760695    3.22357081083527   11.97328537622569
P        12.13454627798216    2.33110214978219   12.63465769980276
S        10.67758367788191    1.46767668571004   11.60945138658291
P         7.88223152928216    3.35921247429844   15.38354298683983
S         8.43863011945697    1.89782043921162   14.17662961151338
O        10.78154191056961    5.55397925808491   15.11788380144137
N        10.15105242452360    4.48437841203970   13.20818209164292
C        11.32373599157956    4.94173592982713   12.58220907557881
C        12.35903563981815    4.07108158227763   12.22558813093774
C        13.47319849600581    4.52680935247636   11.52887199115385
H        14.24760935860502    3.82743486537968   11.24439372607475
C        13.58538114383440    5.86683228752471   11.22166265488978
H        14.45066053683594    6.22647555998349   10.68583758490889
O         6.26368321424036    5.02287472564066   12.11713210583786
C        12.58376844217692    6.74827604542468   11.60656073628486
H        12.67409645450729    7.79849855308924   11.37225153666573
O         7.04852094458341    1.08911347461322   10.55154097619611
C        11.46682471474531    6.29589169632690   12.27661782971978
H        10.67957735584543    6.97800611994129   12.56222715917124
O         9.83529160934195    4.60931985582147    9.42403756012794
C        12.00938448265106    2.16999267630945   14.44087171488822
C        11.46484076060429    0.99511378875130   14.94610860676050
H        11.06368535176674    0.25650257134649   14.26346776647549
C        11.42651206299400    0.79216179543658   16.31242698917078
H        10.99618721446392   -0.11471916929602   16.71080079822593
C        11.94174469995697    1.75390581001309   17.16627983563379
H        11.92069022044015    1.58903539705099   18.23357548348513
C        12.47838418743159    2.92641417190544   16.65895915293085
H        12.86826845914359    3.67996504517377   17.32665156589816
C        12.51598966319363    3.14314218697247   15.29362362540726
H        12.91659411490966    4.06485917950278   14.89583263977954
C        13.69736062517866    1.49981461317797   12.23221813791786
C        13.80484360129308    0.73920505973808   11.07601317051470
H        12.94357216688733    0.62252297649667   10.43335940382676
C        15.00989670338403    0.13617356525975   10.76205944363991
H        15.09525668224495   -0.45511838221453    9.86273566842239
C        16.10254665668148    0.29222273284904   11.59879711172270
H        17.04255833354180   -0.17858791980803   11.35219951200008
C        15.99327260207625    1.05058969943331   12.75429221936264
H        16.84575599486683    1.17044754924678   13.40648128822042
C        14.79265190363232    1.65576851394033   13.07492915225963
H        14.70087476350160    2.24871542650453   13.97485648341209
C         9.92905674625567    5.03140323658352   14.40635151743516
C         8.47403560134931    5.02102743159808   14.91421325998305
H         7.81137009765642    5.39182491363891   14.12506849003179
H         8.40387068946455    5.68073127444788   15.78361007490873
C         8.46773542910324    3.02457490993862   17.06348051400169
C         7.89266140977892    1.94513748335906   17.72823471908006
H         7.13012735195530    1.36126475892270   17.22881511945378
C         8.29703929348931    1.63616766153935   19.01220252500121
H         7.85129569940633    0.80137354577857   19.53226728866025
C         9.27092125954109    2.40462466178516   19.63205584267773
H         9.57922129434364    2.16970479021998   20.64025643271366
C         9.85418704299488    3.46631386604308   18.96096458176009
H        10.61922902837998    4.05668253785045   19.44304006304364
C         9.46447716210085    3.77854491850331   17.66934795667571
H         9.94162422977580    4.59190641822503   17.14150068591384
C         6.07434680079990    3.52294147626956   15.49606494676172
C         5.50699596152509    4.21411186625290   16.56063128525745
H         6.14089970840517    4.61826517008144   17.33880360685541
C         4.13514653799066    4.37054581260875   16.61427869523898
H         3.68722762434046    4.90411013884079   17.43946295383640
C         3.33630056430803    3.84592865319420   15.60924946313930
H         2.26525971645976    3.97455959136703   15.65467492960756
C         3.90511110561043    3.15830823693793   14.54984150171847
H         3.28255478748290    2.75203655824026   13.76751126413495
C         5.27697040042236    2.99205661289787   14.49133141496558
H         5.73651049158110    2.45385664304819   13.67113452741629
C         7.22708192803284    4.38326840791417   12.09777200680333
C         7.68225362826710    1.90225256198259   11.04214837726221
C         9.38573087910195    4.11075829592039   10.35408216412248

