47
CSD_code = GEVDIU | q = 0 | S = 0 | Stoichiometry = C16H29FeP | MND = 9
Fe        0.62560799767124    4.38933251258577    1.06632364905010
P         1.82471627968050    2.63278899990688    1.56807268643659
C         2.10866732024063    4.74095556167659   -0.27589648460135
C         1.30130138900708    5.87574278125645   -0.10864883430862
C         1.06775713000939    6.34225665437076    1.19264829608269
C         1.57861536257028    5.62208636276837    2.29663421298459
C         0.83029270015141    5.81945894318617    3.59853029661627
C        -0.09207724124112    4.61908510297676    3.87373148748350
C        -0.59313258428264    4.03192820979278    2.57854055612746
C        -1.21726102005658    4.89397082183052    1.64944072451352
C        -1.24089727502235    4.49300234769198    0.30398525193721
C        -0.66970335711356    3.26471671985816   -0.04934695903649
C         3.40020978441997    2.80516893425357    2.54991503863699
C         3.22894394824420    3.10320087913055    4.03109661859521
C         0.99710290507006    1.24313095895952    2.48943575185745
C         1.76865879654578   -0.05098844825914    2.72100182566652
C         2.63518903143581    1.69185934251205    0.18336406924075
C         1.68782871992574    1.23708557836550   -0.91229070316089
H         0.73932657853799    6.29272855839374   -0.93077296875041
H         0.33542906335363    7.12601979982177    1.33221456373043
H         2.64316515237671    5.45552320161637    2.37251668445008
H        -0.96509603071700    3.01879334724645    2.65770960310410
H        -1.52475560354718    5.89472983864616    1.91478910508348
H        -1.53557896898623    5.20703809126694   -0.45120268471241
H         2.13098791691304    4.30906365813861   -1.26482362295695
H         3.07041162350539    4.72014576030909    0.21868203269499
H         0.21806919984533    6.72026697449539    3.52191156173090
H         1.50955599081257    5.96241250348483    4.44209957835578
H        -0.91860897786892    4.91977359093231    4.52711262438376
H         0.46876100090418    3.84582204888002    4.39871040733115
H        -0.56831768541128    3.08745853465859   -1.10799739527780
H        -0.93670424602624    2.37728590239356    0.50268079853101
H         3.98678226258541    1.89095033573995    2.42518572046250
H         3.96505639809795    3.61349261423634    2.07882757223065
H         4.20359530366692    3.22895550834110    4.50237545240080
H         2.66030571013570    4.01402090236461    4.17410207001853
H         2.71524318826875    2.28946577640997    4.53683890623222
H         0.07852677160054    1.01913688817592    1.94272960903089
H         0.70039489651737    1.66616611788443    3.45116180839292
H         1.18754088079615   -0.70748628799058    3.36828148871345
H         1.94491954033858   -0.58036295477271    1.78832981876013
H         2.72455047252926    0.13239503133676    3.20490273968133
H         3.39154612533685    2.35398573613136   -0.24173879323152
H         3.15353834344038    0.82924530520332    0.60850359811099
H         2.22239820717194    0.64484443600288   -1.65372228685708
H         0.88251240810585    0.63136915851922   -0.50550370112173
H         1.25202459045988    2.09907735926948   -1.40324177464407

