99
CSD_code = GEVDIX | q = 1 | S = 0 | Stoichiometry = C33H59CuN3Si3(1+) | MND = 7
Cu       -0.33707466870814   11.03915945293180   13.75114615445134
Si       -0.01710427339810   11.26761663442457   11.51756282400437
Si        0.01013914123524   14.21246556858691   11.59694661237521
Si        0.49526602589511   12.92232047906292    8.86842997643824
N         1.13498045049469    9.99158940833700   10.82200449969658
N        -0.93967183194788   10.03785483418274   10.48105153015830
N         0.16158394049669   12.73575869934477   10.61361181828158
C        -3.16661368500853   10.28930364648569   15.24483094607375
C        -1.40836028470569   11.86513356761500   15.80685170313541
C         0.16282937489151    7.86195730407140    9.94076127860276
C        -2.75225035164517   11.59711279888210   15.52032112665655
C        -2.25874198720224    9.22918218286021   15.32767264249729
C        -4.59293648993905   10.03347581346471   14.84962870675845
H        -4.98666450315432   10.86946864571984   14.27849746435562
H        -5.22138261613448    9.89743055945070   15.72998258259113
H        -4.67520752549243    9.14425486879854   14.23279202834189
C        -0.46418833061013   10.80291480943741   15.85647805028727
C         0.41876760065751    6.17770594903349    8.24547559830883
H         0.59857014604733    5.91283166545905    7.21513797905982
C        -0.90309601848655    9.47828521236038   15.58161616619975
C         0.21462580998667    5.18700272456068    9.19187768959161
H         0.23501344286283    4.14852494175342    8.90087759967728
C         2.51824113063410    9.63983968776541   11.06774176880316
C         0.12564852876795    9.26461145680476   10.37461336205489
C        -0.04119005070341    6.86300924226782   10.88885874675603
H        -0.21731979695239    7.13615569407376   11.92037301798345
C        -2.73882376780780    7.81122227323898   15.19396112678978
H        -2.14106362315025    7.14240639063900   15.80552114343505
H        -2.68496940664061    7.47057239337071   14.15932481642059
H        -3.76758085612769    7.72165454315660   15.52760501554023
C        -3.76423515044906   12.70633007116627   15.55939543755257
H        -4.72366318251060   12.33664423118147   15.90815938141485
H        -3.90528372419519   13.14114945105136   14.56907262152685
H        -3.45373130426207   13.49657125593956   16.23451379642088
C        -2.89812811657516    8.97994154650074   11.47584156979486
H        -2.69563726814839    9.52426151917969   12.39657285587280
H        -2.43823343819544    7.99626497171071   11.53452015870824
H        -3.97184520824976    8.85029878199500   11.36959194643226
C         0.49918955775746   11.30305392584031    7.87229452426937
H        -0.46992857581949   10.81899720280184    7.88000005768397
H         1.23014509274647   10.59542542564419    8.24167401526733
H         0.74714630127345   11.52391815461450    6.83825280649105
C         0.39366383584448    7.51103619428026    8.61420992613624
H         0.54777173236369    8.28251085797840    7.87571984251354
C        -0.01540478787861    5.53146159148968   10.51330615173599
H        -0.17442175284143    4.76277005611681   11.25422543283434
C        -2.60663711081602    8.96740857639239    8.98902793719012
H        -2.23064934814497    7.95103689545191    9.06377771828717
H        -2.13685176864554    9.45108548837249    8.13682375587141
H        -3.67698459030828    8.92088340154934    8.80650641096891
C         0.06777767591933    8.32813679506733   15.62008916339440
H         0.03753508979274    7.83317383728330   16.59131721002303
H         1.08777112452099    8.65341417657938   15.43718435901108
H        -0.18245709294956    7.59193724986546   14.86026650140198
C         1.32963655602266   14.12669357711804   12.97076670674432
H         2.32863089916075   14.04092765323266   12.55703504814201
H         1.17286480957714   13.27882723275950   13.63125209032611
H         1.30654383753946   15.02676727318391   13.57554001136308
C        -2.34469427133259    9.75852375734394   10.27423952449347
C         3.22778575747024   10.94145271618748   11.44638779583604
H         2.82653602892258   11.33295954308561   12.37740796065277
H         3.07417406605672   11.68353742748148   10.66937494621254
H         4.29306258857484   10.76664773173696   11.56745760337608
C        -0.96905199458210   13.26515671573030   16.13502017089677
H        -1.22374128240243   13.50713853747453   17.16752653588086
H        -1.45823510770983   13.98625686566066   15.48582728744342
H         0.10203088251076   13.38941704269353   16.01482690161000
C        -1.72846717118356   14.19877120931397   12.37951540335771
H        -1.88640650876608   13.32288122294692   13.00157811052999
H        -2.50265345561441   14.20954760684920   11.61944580958873
H        -1.87243711801401   15.07991108808653   12.99578252157663
C        -3.03889215669604   11.11921520519867   10.18407608038189
H        -2.61674582360710   11.69720576077243    9.36747951489965
H        -2.89195882832296   11.67380711349715   11.10657985159533
H        -4.10391205937691   10.98858763019333   10.01403224333203
C         0.88364999375420   11.05357138169119   16.50379017059076
H         1.58879243705357   11.55655214594332   15.84182572896048
H         1.33648783386123   10.12684914877761   16.83892892706500
H         0.74471810411167   11.67956535750947   17.38278346252105
C         2.61420516155501    8.64524254738606   12.23303614420291
H         2.20350508196129    7.67890965269638   11.95202292954430
H         2.06448597062322    9.02675631512910   13.09199866960075
H         3.65408686530682    8.50544985150338   12.51529844760908
C         2.23965878622385   13.68694294789651    8.70489931832856
H         2.95765668481033   12.96212615222996    8.33115380443293
H         2.61425976522375   14.06288556866885    9.65161350380037
H         2.23543244804121   14.51297787085558    8.00074871111598
C        -0.89455268515243   14.00238355732768    8.12772808946953
H        -0.52674074296978   14.98291306559463    7.84742974997197
H        -1.71448546823690   14.14632851981510    8.82379741247547
H        -1.30129433141179   13.55000085347486    7.22796689106527
C         0.22476422881190   15.84929417659043   10.66142072922863
H        -0.64773205952989   16.09448107836871   10.06710149761664
H         1.08433678146214   15.85132152675254   10.00300978825577
H         0.36111505474400   16.65487400902044   11.37684342635411
C         3.18917160414814    9.04546561570498    9.82510946510363
H         3.13230225824925    9.74225879941592    8.99261831208630
H         2.72306122600082    8.10816450586644    9.53403598465319
H         4.23731183875959    8.85241933501974   10.03728916161323

