78
CSD_code = GEVDUJ | q = 1 | S = 0 | Stoichiometry = C33H42CuN2(1+) | MND = 3
Cu        7.06746320778133   10.26935560994665   12.70769422043253
N         6.27225225433069    7.49902001977072   11.82725246131476
N         7.63846013063885    8.43818807679865   10.47190837816051
C         8.52751777452409    9.40729070298126    9.92319649720201
C         5.43586537003991    7.24688594013169   12.95418896250166
C         4.10179984063881    7.65850758384383   12.91130256575495
C         5.97882128954551    6.59320565787915   14.06163953077565
C        10.71836183458025   10.33857566363355    9.78426971744111
H        11.76876534477955   10.31571161355847   10.02336726570844
C         8.00751797032375   10.42138117897609    9.11761709393249
C         3.81759969652297    6.73386382284974   15.11738369630908
H         3.18126133197935    6.52832123633708   15.96410182141793
C         6.98409167778311    8.62493006759165   11.63562190247296
C         3.30435495613360    7.39300775515993   14.01616834032072
H         2.27197550037019    7.70172963351318   14.01708129436520
C         9.88490257097712    9.32912602566924   10.24533518405090
C         7.43634020213685    6.19986847112167   14.11824226683943
H         7.90460091969431    6.39394312698489   13.14799779112243
C         6.47664708255208    6.62016380644217   10.80107715122877
H         5.99892120966422    5.66336098787885   10.76691456530371
C        10.21775931962754   11.37355872607469    9.01633687334471
H        10.88025592669125   12.15120841125907    8.66806417608884
C         5.14240540886758    6.34339229314371   15.14213762280448
H         5.53108110375372    5.83906750125069   16.01202029753020
C        10.42007262484472    8.19525672298332   11.08924241929526
H         9.70817046336112    7.36389442984251   11.05720008772471
C         7.34152825208910    7.21504261683027    9.94185151649717
H         7.75875473959260    6.87674673814622    9.01630258573128
C         6.54898921160697   10.45133215520637    8.72433220367709
H         6.06728717816203    9.52692712212139    9.05869709906700
C         8.87932560848695   11.40828698249020    8.67557022374679
H         8.50882383129568   12.20995940749725    8.05709899691552
C         8.14150028816935   11.45641448941259   14.66513087796226
H         7.72579826770921   11.06053060536983   15.58086184207946
C         3.55728436701366    8.42406921724442   11.72791446769146
H         4.22854882466369    8.28931647180886   10.87332342841776
C         7.28735015706337   12.03240909895312   13.70110304008219
H         6.24905615782903   12.24127713860323   13.95744120327913
C         8.15507162062817    7.05896985245495   15.16257643947043
H         9.21189948647220    6.80684466797367   15.19170665457217
H         7.73604709683013    6.89374536611446   16.15124396116816
H         8.05561231854117    8.11606007506389   14.91689132563600
C        10.05987768835915   12.06886010690053   13.35026693725658
H        11.13110827788596   12.11186617685494   13.23081258311911
C         6.39365405800575   10.52991860740524    7.20396120996484
H         6.75019127322896   11.48084783587369    6.81948583371802
H         5.34572408651288   10.42738166576273    6.93361740780493
H         6.95346573959822    9.73242630213766    6.72104500050740
C         5.83674568071411   11.62180871020211    9.40522571473672
H         6.29788070361921   12.56654681594017    9.12944447708947
H         5.88292057238079   11.51013762964883   10.48860857654861
H         4.79284145515918   11.64910912151556    9.10355807454363
C         9.51517114515277   11.47842444148574   14.48048775223165
H        10.16224081238887   11.05323778673809   15.23227458036229
C         9.23732958168247   12.63298681154481   12.38878376966144
H         9.66723225869817   13.10129027156565   11.51717926985019
C         2.16995024055346    7.94081217325557   11.30552635335922
H         1.41754749628518    8.19767010464708   12.04511962549213
H         2.16627040463063    6.86239484094905   11.16740015773154
H         1.88801393709968    8.40921132476239   10.36583662189363
C        10.54729342831311    8.65489744255454   12.54411521496261
H         9.58257555861582    8.99157064449758   12.92563865892282
H        11.25296875604164    9.47791529744303   12.61885807763219
H        10.90288297378144    7.83686831145299   13.16500583716041
C         7.60269094483175    4.71086363969675   14.42578582081033
H         7.24232871802968    4.47147614744897   15.42172361202675
H         8.65320905030654    4.43649423142084   14.37131306794893
H         7.05150071701178    4.10821512152645   13.70757834569705
C         7.86158150951088   12.63015207787760   12.55880880727637
H         7.23277443175808   13.15105928817917   11.85165413273196
C         3.52816669934787    9.91520643104909   12.07862283186991
H         4.53293733543990   10.26267678698122   12.33395203536938
H         2.87656488861181   10.09151709639628   12.93069183417810
H         3.16171398497514   10.49461329320591   11.23531145918494
C        11.75945040356943    7.66880985597619   10.57239836552765
H        12.56013116335387    8.38217238683037   10.74425093866125
H        11.70403257249254    7.45854111158798    9.50712771348126
H        12.01588903375695    6.74867303776768   11.09152125124947

