69
CSD_code = GEVFIW | q = 0 | S = 0 | Stoichiometry = C19H36CrN3O8PSi | MND = 6
Cr        3.64250858834003    2.30742973701526    2.95947763583868
P         3.38468601110146    3.78538040812909   -1.48023532948059
Si        2.31368855645782    3.95724164842219    1.61908273789023
O         2.08548481736454    5.58483365861989    1.74546096401273
O         0.91200260326866    3.58055997851183    0.83409697797941
O         3.33728511050883    4.00228420437675    0.00591942002891
O         2.51319198451579    2.88056557392162    5.70069503114725
O         6.18226424451588    3.88584391144904    3.26214155188969
O         5.25238845148654    0.26930453959923    4.44835021879861
O         5.28158432125849    1.26493213791124    0.66968977128778
O         1.83966225125777   -0.06138586117015    2.51339991542598
N         2.39819950396887    2.56176195839504   -2.07928344380946
N         3.06584042532926    5.23758865278748   -2.22976772154848
N         4.90826379664232    3.34436836463811   -1.93192696742181
C         2.83092569181695    6.63673198922840    2.33172401988169
C         4.21778109254479    6.71645705199307    1.69354921340817
C         2.95270908685800    6.41417249044106    3.84037278215322
C         2.04372398325752    7.92391779272343    2.05417199887692
C        -0.40462439589170    3.42983480974108    1.34751261353941
C        -0.44325866465109    3.58214952431506    2.86708461203889
C        -1.27411710388559    4.51660162112321    0.70423890047136
C        -0.90537028655827    2.03320771088534    0.96407298426670
C         2.87562044540889    2.74999078990184    4.61222999996151
C         5.13045842297010    3.41124664396335    3.17202626859751
C         4.62051718935455    1.06398420273319    3.89458728850910
C         4.58614277994286    1.71043184095667    1.48445879978119
C         2.42933242086758    0.91961361825238    2.68384532472030
C         1.02758261292444    2.93511566290442   -2.39158328055055
C         2.47123306185828    1.34052243957299   -1.29020205041379
C         3.32671787929342    5.39586070863881   -3.64245998397747
C         2.08367456806866    6.15062684380382   -1.68256130701611
C         6.03133326880677    3.88883156828148   -1.19902175719654
C         5.23899292292219    2.32783502631303   -2.90260298805568
H         0.46047872745607    3.19115473330856   -1.49356101443304
H         0.54862668752452    2.09087167617118   -2.89080660517914
H         1.02770183366068    3.78257833741387   -3.07326403066387
H         1.92074371724919    1.43269542197926   -0.34937464691927
H         2.05673708758203    0.51827898266569   -1.87588566118404
H         3.51162946227012    1.12456003899791   -1.06093024520216
H         2.41828864672159    5.29678271647423   -4.24739867431810
H         3.75013150186235    6.38703952239148   -3.82463636584774
H         4.04300772874914    4.64158232588426   -3.95869967201036
H         1.91256302964872    5.89710568970035   -0.63879644633933
H         1.13241245220905    6.10194156207432   -2.22304764082181
H         2.46554744015990    7.17289479926636   -1.75127674208919
H         6.71978818225154    4.39803902381697   -1.87967831258513
H         6.57393332773805    3.09734662642347   -0.67568961745224
H         5.65924726582676    4.60045455009336   -0.46554095177867
H         5.73333602862334    1.47771450958372   -2.42308913367474
H         4.32958425505798    1.98485469277218   -3.38887288763940
H         5.91945499085789    2.73717515033582   -3.65657301303768
H         4.77248778381556    5.80768863954168    1.90836779627937
H         4.12478365555076    6.81445549210719    0.61473047090466
H         4.76417570498578    7.57061368708874    2.08458610621838
H         1.96576443864862    6.28620625316099    4.27782150625858
H         3.53578161630678    5.51799327742798    4.03993578212506
H         3.43663601386864    7.26785117020672    4.30698762922808
H         1.05056815272819    7.84993525925799    2.48970039801967
H         1.94028397662630    8.07512546138280    0.98274888638346
H         2.55439147452594    8.78032454831575    2.48514841812808
H        -1.46764499881928    3.50381905595204    3.22231824679801
H        -0.04155147673260    4.54998980046949    3.14935490224586
H         0.15809338006810    2.80829650778638    3.33758662401035
H        -0.86289130368043    5.49210335448965    0.94907099843118
H        -2.29462576864489    4.45415809999744    1.07195845709815
H        -1.28386817407040    4.40687662915211   -0.37771248590834
H        -0.91865910360908    1.91012405381063   -0.11609783498876
H        -1.91175083526541    1.88024935656232    1.34413023358351
H        -0.25031254371762    1.27857774559530    1.39134132532029

