85
CSD_code = GEVLAX | q = 0 | S = 0 | Stoichiometry = C39H38Cl2N2OP2Ru | MND = 6
C        -1.01492462579201    3.51363763467314    9.94158684616383
C         0.21134658621288    3.15202057885622    9.39907861444461
H         0.30631328273225    2.23768273132849    8.83229293327222
C         1.31356326610999    3.97214913767584    9.57353935299421
H         2.26299296233721    3.68768898739022    9.14300840650816
C         1.20480611473327    5.14999500350296   10.29222835972428
H         2.06843055022721    5.78490013701651   10.42744946704015
C        -0.01671338798980    5.51551829573425   10.83530172754479
H        -0.10604536406649    6.43542739698603   11.39601120236634
C        -1.12040061533689    4.70545672428468   10.65400534851572
H        -2.08131719661860    4.97864725731090   11.07244717129949
C        -4.43380080580137    6.34579667652152   10.08821081136132
C        -5.76904297563185    6.08574712534712   10.38317102309625
H        -6.38098363890017    5.53781933248335    9.68354877555173
C        -6.31167582144914    6.48754074110614   11.59031776954485
H        -7.34968507493332    6.27778004596661   11.80398004663719
C        -5.53029566388596    7.14615500969312   12.52369347723458
H        -5.95363095388208    7.45471098906973   13.46856045198258
C        -4.19932260254433    7.40398440004625   12.24136058510190
H        -3.58110070080568    7.91559219679962   12.96536338012262
C        -3.65284986950848    7.00565894090278   11.03563215003668
H        -2.61475141399708    7.21974687111564   10.82455404846787
C        -2.32726181276051    6.88019338780235    8.29520111325170
C        -2.58964002150519    8.24475814762370    8.41914028070321
H        -3.58132184716801    8.58025889862179    8.69406670209179
C        -1.58587854141693    9.17052994111378    8.21588249533559
H        -1.79871030594958   10.22525420735533    8.31840198000735
C        -0.30711902906600    8.74823308690263    7.88375542627009
H         0.47646617965528    9.47515252314368    7.72576683877464
C        -0.04176581332319    7.39732800380223    7.75631120934985
H         0.95055283680494    7.05960104749533    7.49661905448299
C        -1.04582679654943    6.46548079640300    7.96253499448387
H        -0.83230554856314    5.41499284078424    7.85134204006137
C        -4.84430510490290    6.32905440221650    7.22196662469779
H        -5.87613983418125    6.13811496746317    7.53271588979739
H        -4.70936261104511    7.40045768938817    7.06105101980937
C        -4.52860691862219    5.53740080774995    5.95364777515692
H        -5.13385850465714    5.89414882000397    5.10578666595354
H        -3.46634423911266    5.65128574953203    5.70106325216907
C        -4.41679058191059    3.18296397067880    5.18343174240688
H        -3.37485775482063    3.38066922373014    4.89648643406347
H        -5.05639786665894    3.27543056134109    4.29373442245005
C        -4.52193860888052    1.79749030856739    5.76860536869439
C        -4.89568104073047    0.69209518488498    5.02543012181877
H        -5.06029633514132    0.78712281967681    3.96426144998213
C        -5.05585198831052   -0.52414325244260    5.67119077516544
H        -5.32183918695259   -1.41029922996105    5.11698220836758
C        -4.91897953541652   -0.57978796487895    7.04807772722129
H        -5.09284418989610   -1.50055754716748    7.57820619746412
C        -4.55845260371781    0.57676770537106    7.73194516609652
C        -4.91237259566804   -0.37723924518954    9.87523414012378
H        -4.85908633703756   -0.00751935037855   10.89786798862024
H        -5.94571295347730   -0.64833977602524    9.64101588486463
H        -4.26027440623643   -1.24982625468381    9.76829975311981
N        -4.28575343709502    1.71777481043657    7.08648650088514
N        -4.78237474765271    4.13156380762836    6.23432689340494
O        -4.47633930584267    0.69195731531221    9.06739762825170
C        -1.85276401775405    0.86661921438384    9.51921499799842
C        -1.43311011906207    0.47130467330910    8.25039904003113
H        -1.50548980238222    1.16534837601573    7.42361168870817
C        -0.92692596442913   -0.79787733331216    8.03868727779484
H        -0.60453826405475   -1.08848868811081    7.04899506106238
C        -0.83581582836815   -1.69435060149971    9.09088405685045
H        -0.44158662861001   -2.68699932634488    8.92770550981221
C        -1.25890657437482   -1.31243035458817   10.35243391575453
H        -1.19722552379799   -2.00866803021989   11.17714676002525
C        -1.76889760422775   -0.04295870640595   10.56717307161089
H        -2.11152159226613    0.23018191779827   11.55416862053903
C        -3.14723499061008    2.58786550485674   11.42533837877722
C        -4.49483171374587    2.80449742201342   11.67809226864956
H        -5.17588627051153    2.91959663363663   10.84897973278925
C        -4.95786470058009    2.88984693086678   12.98025904935264
H        -6.00710910976995    3.06780349348409   13.16527506494149
C        -4.07739767432314    2.75607443587668   14.03923212542400
H        -4.43560719131680    2.82398787865906   15.05642562498325
C        -2.72875000941952    2.54491077895447   13.79408616887637
H        -2.03795854691091    2.44861565921139   14.61986398955262
C        -2.26165919691238    2.46736206256150   12.49600302667420
H        -1.20508131842978    2.32829774382803   12.30825075795572
P        -2.55550930927385    2.55338324855311    9.69971158321886
P        -3.69451492321569    5.68854115982477    8.55046498242198
Cl       -6.11830895300765    3.28791128448530    8.70143812243312
Cl       -1.74971034713003    3.49164563993688    6.71620332419878
Ru       -3.80262658537814    3.44819282391526    7.97501455997085
H        -5.78370790352706    4.02136154010031    6.44836552506581

