33
CSD_code = GEVMID | q = 1 | S = 0 | Stoichiometry = C12H16CuN4(1+) | MND = 4
Cu       -0.00000059515327   10.33099959821157    9.66779082773303
N         0.50493235754250    8.58979701096830    8.72967921533159
C         1.48672871990100    7.88687667512130    9.29396037443561
C         1.99098481784719    8.39247167946432   10.62320476827879
N         1.79698864160169    9.83889780293797   10.72189210701764
C         1.99359413205059    6.73678959763634    8.70564342469141
C         1.46260044796934    6.31001152512181    7.49913533041481
C         0.44282867482354    7.04981921173014    6.91815225285331
C        -0.00266563673573    8.18484834327212    7.57098528270812
H         1.39741470514345    7.91303233865032   11.40870005493596
H         3.03674382933586    8.09285073293981   10.76094131697394
H         1.81801868754922   10.14806684343590   11.68640929156095
H         2.52811717013609   10.33078097896836   10.21714196020268
H         2.78834126624930    6.18768827351037    9.18525428830104
H         1.83885405137637    5.41961349304657    7.02023435652625
H         0.00377684162346    6.75302669950963    5.97993333381092
H        -0.79356690290602    8.79479974584462    7.15793797079695
N        -0.50493377981224   12.07220182713800    8.72967812189748
N        -1.79698926477004   10.82310227575837   10.72189220701391
C        -1.48672852594861   12.77512341299445    9.29396023799479
C         0.00266354615322   12.47714945655378    7.57098348666796
C        -1.99098522589259   12.26952842155249   10.62320457648540
H        -1.81801891521419   10.51393331516086   11.68640942831161
H        -2.52811777277545   10.33121894701159   10.21714220779771
C        -1.99359272249948   13.92521157292988    8.70564407503122
C        -0.44282896332227   13.61218000965935    6.91815167892805
H         0.79356468863011   11.86719760648507    7.15793611546043
H        -1.39741542704210   12.74896789021660   11.40869998796384
H        -3.03674430920404   12.56914946694756   10.76094071688801
C        -1.46259848851792   14.35198958983955    7.49913611604774
H        -2.78833911851053   14.47431361619976    9.18525546269989
H        -0.00377632717367   13.90897289640890    5.97993307717453
H        -1.83885060245490   15.24238914477436    7.02023634706445

