31
CSD_code = GEVMUP | q = 1 | S = 0 | Stoichiometry = C10H14CuN6(1+) | MND = 4
Cu        5.11372763446752    1.18906286289744    2.59756015958300
N         5.39668234931236    1.88986326756852    0.73926976013133
C         4.72721706356478    1.29492632075108   -0.25397124506131
N         3.93645636110924    0.22868775076818    0.06518465857038
N         3.69634165879351   -0.09132329246012    1.40786446852374
C         4.85361669912310    1.71062778344674   -1.58616007548974
C         5.69516302702366    2.76015775224665   -1.87329996598385
C         6.39083993024569    3.37775059728646   -0.83432825547879
C         6.20830131771587    2.91015208246745    0.44671982538979
H         3.30882286175232   -0.12510176326021   -0.64602502155977
H         2.75578287911487    0.16234302760162    1.70847364999054
H         3.85073625947126   -1.08238008669465    1.57698141393549
H         4.29699251551279    1.20832129403249   -2.36091595126246
H         5.81186709592416    3.10262797578848   -2.88937981697990
H         7.05467473244234    4.20342564053585   -1.02576718810681
H         6.71927435544570    3.35859076977155    1.28608334458987
N         4.83085128897758    1.88986564415863    4.45583702320366
N         6.53121940414430   -0.09130578323690    3.78717620953870
C         5.50041224118209    1.29498609714757    5.44902673140263
C         4.01920927894390    2.91011462903118    4.74843999043459
N         6.29114488174054    0.22872424575992    5.12984410784764
H         7.47176836712924    0.16234195942936    3.48655198795462
H         6.37683244857539   -1.08235244556493    3.61808957377101
C         5.37410652447702    1.71072431937887    6.78121509258625
C         3.83674741388455    3.37774006306670    6.02948081764229
H         3.50815754065383    3.35851361173930    3.90910617302100
H         6.91873478648548   -0.12514684312224    5.84103615619395
C         4.53255872238301    2.76024706799191    7.06838967059268
H         5.93077411039008    1.20840637897349    7.55596846647041
H         3.17290896331047    4.20339411759599    6.22096158776685
H         4.41587728670134    3.10271495489846    8.08448665078298

