57
CSD_code = GEVPEC | q = 0 | S = 0 | Stoichiometry = C28H24N2O2Pd | MND = 4
Pd        3.72392307413008    1.53759638348744    1.19131210811090
N         3.53867427096164   -0.17821134390059    0.09586648722904
C         2.67075981103141   -0.36730912717521   -0.93463811159717
C         2.72070636200954   -1.59092819603548   -1.65477629855993
C         3.59058163072655   -2.58460966749149   -1.30424326155868
C         4.43558019163948   -2.38061108875548   -0.21092058794067
C         4.36961822302423   -1.17246966593121    0.44179716181907
C         0.88406093811109    0.32095740904963   -2.52886073769666
C         1.37165345065839    0.68063634987991   -3.78048636754000
C         0.62635986486370    0.44065955582788   -4.92124945520241
C        -0.61600643068229   -0.16303956749137   -4.82493571268830
C        -1.10872412458462   -0.52827024644535   -3.58335410277784
C        -0.36356045617714   -0.28751340611530   -2.44298700282712
C         1.68599380927705    0.59584373872643   -1.30314471641223
C         1.38265182626458    1.74400152902248   -0.59148984476568
C         0.25183026720351    2.62326784183058   -1.09042545440353
O         1.93829567698745    2.15483430974572    0.48337040773552
N         3.87723641431210    3.22228228975620    2.33166646292778
C         5.04492189429746    3.81391330121990    2.69847548226365
C         4.99627698337191    5.06863281076197    3.36188953885032
C         3.80269117334226    5.65253526450625    3.68213554545458
C         2.61956853307844    4.98713167099709    3.35271363885992
C         2.71506196752517    3.79148651632869    2.68005084241210
C         7.52668173116341    4.00875727423533    2.80346561061576
C         8.06205120670488    4.86632773056384    1.84872817449761
C         9.19325784367667    5.61229208745621    2.12838754388778
C         9.80270938986896    5.51106210462125    3.36752781342088
C         9.27486821216918    4.66271594556065    4.32643689515925
C         8.14447061481555    3.91616403774315    4.04602198698654
C         6.31516502991979    3.20135485935017    2.48642109793176
C         6.50896982921871    1.89718538616349    2.06353855552210
C         7.92875361766296    1.36810842098406    1.99441365162373
O         5.60785781700522    1.04803713653454    1.74446197218331
H         2.04336778445936   -1.72464991756793   -2.48257721696798
H         3.61875176637894   -3.51204090185282   -1.85677515714603
H         5.12638250728255   -3.14037295857463    0.11536410231942
H         5.02492383724989   -0.97593646863209    1.28268981138001
H         2.34273965389774    1.14961168729789   -3.85299805404578
H         1.01533704695628    0.72491568007623   -5.88847546897701
H        -1.19815861505657   -0.35029869816048   -5.71535179185883
H        -2.07596234280375   -1.00363802631842   -3.50463520335619
H        -0.74332760141749   -0.57903336843636   -1.47386361217903
H        -0.69909407051209    2.10094725375378   -1.01261625490999
H         0.21383481576587    3.52638396608139   -0.48606396756459
H         0.40663684273439    2.88876966761675   -2.13333420545252
H         5.92693756347837    5.54663932918728    3.62158712686819
H         3.77487093902659    6.60574903892197    4.18896620971804
H         1.65546048668608    5.39595442966410    3.60615461992111
H         1.81599442710107    3.26011257578541    2.38776642963845
H         7.58234285598957    4.94488992098201    0.88334058410200
H         9.60060889799329    6.27484015274164    1.37820532144626
H        10.68583815958435    6.09329236754404    3.58638453225460
H         9.74532457843059    4.58471775925855    5.29617321907219
H         7.72682352375800    3.25956091116432    4.79631345960437
H         8.36722401926591    1.32328306800532    2.98883401824835
H         7.91444290602437    0.36903840421436    1.56517586545413
H         8.54775937414989    2.01874248223889    1.38156630890909

