67
CSD_code = GEVVIO | q = 0 | S = 0 | Stoichiometry = C28H34Cl2N2Ru | MND = 9
Ru        7.58811752909121   -3.97166756310895    5.82135392436260
Cl        8.82788124679324   -3.42818450221602    7.74447754085600
Cl        9.66022535773657   -3.89277968510894    4.70314900748752
N         8.18126984035593   -0.28263571226822    3.86997767866364
N         7.52233880616275   -1.91780076655161    5.41699879146433
C         7.47160297445094    0.41919501758983    6.08918475969909
C         8.61998381844695    0.03532511523585    2.52611841547651
H         8.70069816027176   -0.89778679936058    1.96437505694551
H         9.61750041254377    0.47745534544707    2.58531834467146
C         7.19924065344895   -0.92606539968296    6.35334943484231
C         7.65995017613899    0.97959909161696    1.83862002153308
C         6.54898636676508   -1.26758615647712    7.53565527634254
H         6.35111368244733   -2.30899347677965    7.73985093105403
C         7.10127602743070    1.38769778376313    7.00646316579607
H         7.32005256794670    2.42424488542088    6.79324966178528
C         7.94884633140631   -1.53299088841177    4.25040062016866
H         8.11751595659079   -2.29748180429495    3.50001119556179
C         6.47086481803479    1.03844455936560    8.18852986499011
H         6.19907978454119    1.80214381644192    8.90103013523767
C         7.22127188867555   -6.16055318298805    6.28791725860130
H         7.86277931907834   -6.90863692336622    6.74109923836189
C         8.18970951310496    0.80675079943142    4.82500910263932
H         7.70650025570247    1.67992791839332    4.36768160395931
H         9.23362128866274    1.07775546351859    5.05721635508332
C         6.19822804049730   -0.29321269647729    8.45012169295275
H         5.71179186436683   -0.57632582114419    9.37088069603368
C         8.02647485132918    2.30120699733971    1.56097868464713
C         9.39084290683929    2.83773734038001    1.89006272317534
H         9.45803894126272    3.88384662823834    1.60275854630116
H        10.16255841244961    2.29126610272065    1.34907917084830
H         9.60361280105228    2.76639424258759    2.95541037819514
C         6.38495828946912    0.52804703915947    1.48473395765054
C         7.11214713680832    3.14424324582800    0.94747311796174
H         7.39642244408778    4.16465137802597    0.73298294013997
C         5.84016815674461    2.71381071520330    0.59915339712407
C         6.35402216918777   -5.07004434889045    4.25506045621301
C         6.24119684465269   -4.96152479320715    2.75218761663787
H         5.85833711036136   -3.95973694886308    2.51855108599100
C         5.94930894379194   -0.88418458739152    1.74322597786485
H         6.67270578104171   -1.59569666857615    1.34776857329378
H         4.98967438596890   -1.07225140936370    1.26742619767529
H         5.84311960285921   -1.06903377466923    2.81169560750602
C         7.22473787303110   -5.98874788375113    4.89152116929376
H         7.88354379012203   -6.60407232875667    4.28992120228042
C         5.49607114541300    1.40071717426298    0.87240259916484
H         4.51243034217960    1.04427087539874    0.60099444000703
C         5.44138939102609   -4.52025197322449    6.48870452899242
H         4.69032700025668   -4.00348503790276    7.07506825535718
C         5.50568385581562   -4.30353177571865    5.08776379457006
H         4.79207671219027   -3.62208784914910    4.63105026055638
C         6.31377170914893   -5.43169614021124    7.10570179557715
C         6.31186508467592   -5.62989814163317    8.58801036574250
H         7.14985545010495   -5.06900500286354    9.01319423322284
H         6.44688099341073   -6.67978316337634    8.84129658363945
H         5.38971110540170   -5.26428306515751    9.03479107312143
C         5.21600240875533   -5.99013977082855    2.25785410439059
H         5.54600540950829   -6.99854379472599    2.49966310751100
H         5.10114640716370   -5.91414645955072    1.17921712067248
H         4.24597218823074   -5.82495779368999    2.72302145637562
C         7.58109275025784   -5.14882712858360    2.03859141283391
H         7.85467809687171   -6.20049535278183    1.99751634729955
H         8.37438346581937   -4.61162788924749    2.55698541418989
H         7.51256643945780   -4.78298760653850    1.01639651693774
C         4.88107449175911    3.64927558273202   -0.07012320962299
H         5.23631575645896    3.89791110291856   -1.06986557877355
H         4.79698662770269    4.57748927628764    0.49251249633135
H         3.89469604693531    3.20113457022380   -0.15677769544537

