58
CSD_code = GEWPUW | q = 1 | S = 0 | Stoichiometry = C18H34CuN4O(1+) | MND = 4
Cu        2.60237874184261    9.62516425760226    2.78652743027505
O         2.10318251485303    7.63192205778495    4.49744486359049
N         3.06169017953185    8.34503388758145    4.08995501237706
N         2.65199430452858    9.60973813780657    0.71460063995000
N         1.56698232799058   11.41026302024417    2.69372581556595
N         8.13937735658485    7.44191652173430    6.09323593415746
C         4.30484836659144    8.09676959604249    4.59454179640222
C         5.40834655896764    8.81563632647729    4.09439168950010
H         5.24096721920238    9.53272310919970    3.30111577932510
C         6.66477181320889    8.60029862867222    4.57952543558221
H         7.48623828447249    9.15409790160532    4.15775349752254
C         6.90458130361535    7.64810699511588    5.60627953916621
C         5.78709025257092    6.92387698924655    6.09739748887962
H         5.91636204109487    6.20083031665969    6.88424108827480
C         4.53456322339368    7.14051472919398    5.60799912365007
H         3.68249925532340    6.59764874442434    5.98915024113377
C         9.25129008168437    8.27267230965252    5.69230112314747
H         9.55859220038146    8.05632973140724    4.66543383611429
H        10.09753539681142    8.08690312008775    6.34799627937808
H         8.99245925506647    9.32967761026423    5.76961337856854
C         8.39996903968001    6.38186431660750    7.04049465599533
H         7.98424744482209    5.43697400574908    6.68783388778855
H         7.97403012533913    6.61253994488404    8.02058618987882
H         9.47277154358395    6.25380328171998    7.15544501457816
C         1.72415806755616   10.68137990258933    0.31784464852226
H         0.71922158295168   10.26148716793479    0.28836728763536
H         1.95077009681203   11.05579984105854   -0.68543718076284
C         1.75943433813875   11.85297901878527    1.30141512708557
H         2.72803785670201   12.34929178969168    1.23370067709374
H         0.99023362600299   12.58277417436281    1.01853717948717
C         4.04038354347597    9.89649454035836    0.30607937055139
H         4.67903238849205    9.15187656678448    0.78921149106456
H         4.30917954207754   10.87671161641907    0.70492938793195
C         4.32322099497193    9.87633870629415   -1.19570627998283
H         4.14922342966141    8.89208979879350   -1.62015915023908
H         5.36728850729160   10.13121723406536   -1.35575352812904
H         3.72000819081981   10.60088770357527   -1.73563388086884
C         2.20795850596882    8.30121964907910    0.19924566223492
H         3.05663561444484    7.61792053896967    0.27317266753691
H         1.92500491052386    8.38588380400956   -0.85634351602498
C         1.04896711244134    7.71122778031057    0.99118684730335
H         0.13910285757207    8.29702167800809    0.89046261462881
H         1.29856901888545    7.63371356105120    2.04801576171365
H         0.83895096468543    6.71094695616536    0.62186360458178
C         2.08251652178515   12.42947667978367    3.62546941304836
H         1.62653972711565   12.25299902247355    4.59926463448234
H         1.77966702769238   13.42810750226995    3.28620704101856
C         3.59263333948041   12.36924951401959    3.79784232824904
H         4.12271398812992   12.58141654481049    2.87267984737681
H         3.88424366159101   11.38181028650127    4.15496062668201
H         3.90049149879415   13.10641660210298    4.53447432639603
C         0.13365771046528   11.17182003021009    2.96081577284753
H        -0.29192534545514   10.66188147548736    2.09630637927189
H        -0.38140073952784   12.13521242496772    3.06929074478818
C        -0.11202521893635   10.30753831461232    4.18906253975489
H        -1.17348012240099   10.08665985804275    4.26270331379121
H         0.18740366159317   10.80415657713535    5.10784873534034
H         0.42521430904978    9.36388759952183    4.11658576478791

