68
CSD_code = GEWQEH | q = 1 | S = 0 | Stoichiometry = C20H40CuN6O(1+) | MND = 5
Cu        4.85462312776276    3.75614825368880    2.44091456665971
O         5.39114841561502    1.07844229572104    2.18332667800131
N         5.79827940115781    2.10109594872580    2.79466210774203
N         9.01787979690243    1.47765093838727    7.25711194175550
N         6.07034323922776    5.38907537568099    1.67220821349725
N         3.38617411041764    4.47710512558090    0.99126440019835
N         3.30319748450944    4.01534615601012    3.84880553226515
N         1.98642708700187    1.67694896177563    0.76750139484531
C         6.56264249437313    1.90951005350936    3.91028780791784
C         6.98863473759798    0.63405631798365    4.33945903120088
H         6.66825383722428   -0.22419362234819    3.76769748333858
C         7.78923009153613    0.49177931959588    5.43351768705853
H         8.09685070188486   -0.49854526631227    5.72170745638465
C         8.21891870909104    1.61643998616639    6.18333153867781
C         9.48096562343081    0.17246641520320    7.67057081810903
H        10.05728695269257   -0.30797792095573    6.87655254972810
H         8.64198161915890   -0.47378810132206    7.93848919497006
H        10.12271004348322    0.27127020769672    8.54123483021935
C         9.45742707810638    2.62964728047849    8.00990097274417
H        10.05302566090788    3.30197752315606    7.38729297765071
H        10.07373937407076    2.30743627038288    8.84416402515379
H         8.60536563726984    3.18209761001011    8.41276999604455
C         7.77604276814617    2.89410263191280    5.75141614199716
H         8.07244934089308    3.77705084720227    6.29207128183102
C         6.98197921496375    3.03134646360857    4.64961939518997
H         6.64726624394346    4.00647824205123    4.32353714140661
C         6.18093033706161    6.51080547646414    2.59929664939236
H         6.66698024453196    6.18553145337671    3.51717652002699
H         5.19489117919721    6.89446259183537    2.84862901999331
H         6.77264593676426    7.32822497937284    2.16900995115272
C         5.39051565976117    5.80563189671219    0.44104424485450
H         5.65788734127320    5.09701536224340   -0.34410302498422
H         5.72580758022807    6.80253203211646    0.12465396883159
C         3.87272015839200    5.80965372239473    0.61554483691262
H         3.60189072168734    6.51726726650333    1.39896330100987
H         3.40350313655470    6.15280444827841   -0.31611222400750
C         2.12505785016598    4.55256999920145    1.73915401697642
H         1.66672257634085    3.56492521121604    1.68053738111552
H         1.44235099503817    5.28367271610044    1.28508801889642
C         2.35016667287332    4.92243909287453    3.20330334674709
H         2.75139828849628    5.93600918657979    3.27966613992990
H         1.38325981894674    4.90758174312654    3.72500897346651
C         3.75159417304521    4.58001976334669    5.11701064743455
H         4.24872292451554    5.53394467945477    4.94959764222594
H         4.45580969960934    3.89741918845257    5.58961068710440
H         2.91112185214993    4.73982592427758    5.80284323534373
C         2.68771243746576    2.71081598833498    4.09589564635812
H         3.41073969107352    2.05605643353414    4.57859850663794
H         2.38527546792612    2.25693339313436    3.15711170650492
H         1.81276740985018    2.80655628804505    4.74945131055015
C         3.20308357424883    3.65361968918944   -0.21220853158660
H         4.05181385453573    3.82900344150078   -0.87485007370788
H         2.29776245584881    3.97557079788589   -0.74369167149325
C         3.16871939054784    2.14979717059577    0.05632113682979
H         3.27193935740444    1.63706155903001   -0.91523916418559
H         4.04010127789308    1.89213340617910    0.66170814371845
C         0.80064329327438    1.67837068160413   -0.07347750689222
H         0.90943801766907    1.02020193978195   -0.94697510203341
H         0.58574980461432    2.68587971447590   -0.42419622527188
H        -0.04836983017570    1.33390466863231    0.51465843493248
C         2.21681890894303    0.33697774181962    1.28686418969968
H         1.37818068104481    0.05382190673797    1.92193307386399
H         3.13288384835276    0.32519523782456    1.87441735602231
H         2.31389785230783   -0.40722769839642    0.48540352396452
C         7.40964209252682    4.89118517519438    1.35931144579659
H         8.01313571949115    5.65454529159204    0.85419362466174
H         7.33570042133538    4.01572558845525    0.71799143956549
H         7.91684433575073    4.60016753728199    2.27684023904970

