57
CSD_code = GEWQAD | q = 1 | S = 0 | Stoichiometry = C17H33CuN5O(1+) | MND = 5
Cu        0.17987931884353   10.73934670097041    3.89445874022583
O        -1.37014301704653    8.81522539375569    5.04172868904706
N        -0.36285742477226    9.53072160493998    5.27192973202223
N         0.08645180770775   12.84645110560587    3.91330604804100
N        -1.11424499095962   10.90705204580620    2.15901274925384
N         1.48600891039183    9.71865956605487    2.54279812720093
N         2.97318357259277    8.34017880732103    9.52485350532938
C         1.30922611315475   13.47873043073433    3.42405582819727
H         1.23340175498759   14.57194258455220    3.46269997607588
H         1.50155364966749   13.18408907346256    2.39600416004183
H         2.15273407101259   13.16965056406599    4.03851270705297
C        -0.16512102763368   13.30009616527053    5.28221772254130
H         0.69274637071787   13.06529080930276    5.90920852968491
H        -1.03665533465109   12.79068613772900    5.68762058156492
H        -0.33519150192770   14.38235126386114    5.31847499653388
C        -1.05438524898901   13.19514736290520    3.05461130872315
H        -1.01698302040253   14.25385074214724    2.76763869067562
H        -1.96673002717478   13.03476702063735    3.63060099130006
C        -1.10148102016745   12.32486924777100    1.79741781160150
H        -1.98964714826302   12.59265515181277    1.20967224813300
H        -0.22443510201965   12.52653830143606    1.18159650630432
C        -2.46530378008407   10.45934182013416    2.48498861260608
H        -3.10424027815566   10.42109492932574    1.59538296137003
H        -2.91530017138624   11.13693306909445    3.20566052288679
H        -2.42293503016467    9.47407223865409    2.94491898750134
C        -0.52451509177508   10.05632326637358    1.12549760439485
H        -0.83605900965955   10.36893835183152    0.11962216167593
H        -0.88860903725070    9.04051363155413    1.28205100827370
C         1.00356619308383   10.06275307960806    1.20113683930403
H         1.40093230774008    9.36455815084303    0.45165539517841
H         1.37815291653664   11.05929410326911    0.95785638694117
C         2.89061780507633   10.09050725458705    2.68346701998844
H         3.22972891782636    9.84593909563663    3.68844244970155
H         3.01407842644849   11.15950827884417    2.52470400053550
H         3.52144096301500    9.55487746305873    1.96445084809672
C         1.34982484711746    8.28298959825587    2.79063765864918
H         0.30268802053153    7.99285737100025    2.78260875037900
H         1.75822452295577    8.04579601203315    3.77132495446065
H         1.88825586311868    7.69745240957320    2.03613730843485
C         0.44949138727424    9.18740181165199    6.31487286593158
C         0.16538592246837    8.12528755813660    7.19904080722113
H        -0.73192860643055    7.54998792181785    7.02596068275080
C         0.99180215043932    7.84529031509850    8.24644590587359
H         0.73180542939158    7.03586895030869    8.90654296579153
C         2.16486258049385    8.60693281641805    8.48314641753805
C         2.70417281563670    7.22617060853309   10.40555221848446
H         1.77468959202678    7.37739252930386   10.96039349984061
H         3.51452055080882    7.12340218574222   11.12156403248199
H         2.63146557347776    6.29396531578351    9.84200788358543
C         4.12049464466233    9.17122681081968    9.80829564323421
H         4.87210342516668    9.08927213033932    9.01875872656388
H         4.57592282535681    8.85758078469299   10.74318995001172
H         3.82727100595421   10.21811617839799    9.91077048480215
C         2.44871908648840    9.66570320629781    7.58039103545754
H         3.33636904026444   10.26095618280325    7.71221158144532
C         1.61338491482207    9.94671406418545    6.53853959001582
H         1.83080857172905   10.75408042575700    5.84915258900618

