43
CSD_code = GEWRAD | q = 0 | S = 0 | Stoichiometry = C12H26Cl2N2Pt | MND = 4
Pt        4.65288839269870    5.51165809489216    5.93124428346100
Cl        3.41007325261052    3.59197511485517    5.55575221850186
N         3.30988850992794    6.19998052124604    7.32940774565792
H         3.65069030459909    7.13112065525816    7.59809278122810
H         2.38592175132758    6.30766358271308    6.90027853511882
C         3.20162771493455    5.35783939035937    8.53226106601820
H         2.78821476474151    4.39205634512210    8.21950711124017
C         2.28213654895254    5.99340991726638    9.57613559978292
H         1.28182589101613    6.13643786470569    9.15913025996474
H         2.67692953429712    6.97373338479660    9.85733953226406
C         4.59482441976220    5.13710552750081    9.11879027129294
H         5.03554862006154    6.10223787875529    9.37903991902940
H         5.22947519154946    4.66737559384349    8.35702139939342
C         3.59466471718229    4.88055988398905   11.40081135313483
H         4.01107353723646    5.83690382772430   11.72502762866298
H         3.52666650971835    4.23180693808252   12.27557791948877
C         4.51582792635649    4.25308579840634   10.35856593151604
H         4.13091144280014    3.27077576017958   10.07762429885877
H         5.51374383937110    4.11588756114609   10.77736610512511
C         2.20369532863129    5.10547963574754   10.81583734293035
H         1.55453433461974    5.56943495752484   11.56059403784652
H         1.76580526461179    4.14344244519971   10.54172054012630
Cl        5.89594498454505    7.43059163989969    6.30644915134290
N         5.99589947754024    4.82322957936109    4.53310698940322
H         5.65529702426055    3.89203212379190    4.26437655427847
H         6.91979564325323    4.71569603400387    4.96242966810229
C         6.10430590441098    5.66535639451276    3.33027859583980
H         6.51704272748582    6.63135914652142    3.64325155986290
C         7.02464361063372    5.03030197810080    2.28682525272146
H         8.02480470434915    4.88772112270607    2.70433666586509
H         6.63050488349814    4.04982099541209    2.00523311934809
C         4.71126476124811    5.88526548914973    2.74306438966845
H         4.27127235924820    4.91991131590640    2.48235195309824
H         4.07589829451697    6.35445765906091    3.50456811753777
C         5.71255630988917    6.14286035229224    0.46165914033093
H         5.29685043293058    5.18638022642036    0.13693649523195
H         5.78071900538130    6.79188523375121   -0.41289441134647
C         4.79043515307533    6.76958463584879    1.50351873415065
H         5.17460173472359    7.75207213114367    1.78486787541302
H         3.79266927227458    6.90626874303813    1.08419043804179
C         7.10332314759922    5.91853150424871    1.04735082110920
H         7.75313868665819    5.45506486761092    0.30286036189610
H         7.54056408548328    6.88073814789523    1.32191264752589

