105
CSD_code = GEWZAL | q = 0 | S = 0 | Stoichiometry = C52H44N4O4Zn | MND = 6
Zn        2.91752556851206    7.45183052745987    4.80794528632373
N         4.19355434925792    5.87902954229242    5.06354592005598
N         1.64252645565870    6.61977633099803    6.13504145726581
N         1.67744386623075    9.02347150703807    4.54582074990869
N         4.21994812800457    8.26979132679186    3.46564903049435
C         5.36874934808127    5.67457332771197    4.41522519210784
C         5.93519684277398    4.41246521603000    4.81054575652308
H         6.85189917010885    4.00112150667557    4.43459274874440
C         5.08187644146347    3.87015859954449    5.70996947721483
H         5.16374112530900    2.92581342645153    6.21196960312179
C         3.99579591858348    4.80080069909140    5.86285618411766
C         2.88755472997434    4.58191293908680    6.68290966611835
C         1.79292966504011    5.44152014581289    6.78897595945481
C         0.65811273155020    5.20570507876399    7.64260720218211
H         0.52822164477026    4.35299540234511    8.28052294975076
C        -0.17458115368639    6.25856312590784    7.47733815263296
H        -1.12879215216082    6.42297508094740    7.93899889203530
C         0.46001969465369    7.14480222161365    6.53639880301706
C        -0.08538009282292    8.35739966618370    6.11413394896593
C         0.50826048815024    9.22701809876627    5.19881755883192
C        -0.03301160997056   10.51345405357791    4.84442062394102
H        -0.93852898032583   10.93471465791409    5.23610810243707
C         0.82928868008726   11.06868916268134    3.96276248025185
H         0.76752635464783   12.03109800898838    3.49266628079946
C         1.89560897748568   10.11950611068864    3.77791458072773
C         2.99962921038867   10.33230553106132    2.95043061959524
C         4.07190244365514    9.44912115043740    2.81143673001973
C         5.18494994489323    9.66242997718007    1.92581135025403
H         5.30881171404287   10.50853739901497    1.27839571306001
C         6.00688443871269    8.59708771728444    2.07024056360126
H         6.94226241391020    8.41040135414882    1.57927758072924
C         5.38916942552086    7.72898136564204    3.03692634787595
C         5.94336316140795    6.52462046290433    3.47043226100244
C         7.23470676578773    6.11118642491406    2.87482321396337
C         7.30283985062631    5.72572090717904    1.53989692299913
H         6.40323461406392    5.72349927951644    0.94056864530013
C         8.50872532071293    5.33669752491897    0.98534527252892
H         8.54969507341374    5.03490615991686   -0.05112811421078
C         9.65984402195546    5.33324480466607    1.75525846693007
H        10.60136735479631    5.03155735517758    1.32051538523606
C         9.59981088288372    5.71739366463563    3.08440669728850
H        10.49544726899697    5.71802741328169    3.68848530454321
C         8.39421440954845    6.10159286704414    3.64311025316160
H         8.34708355834792    6.40546208870027    4.67935798828435
C         2.87363544824722    3.34457222244542    7.49410031752585
C         1.93265203619951    2.34829289439534    7.25378314530771
H         1.21177900814972    2.48208794500121    6.45969534715865
C         1.92465644842045    1.19353474048313    8.01501658822551
H         1.19166834941713    0.42504993191252    7.81675667761822
C         2.85276071060175    1.02119481316133    9.02827266678035
H         2.84424937107323    0.12024588766687    9.62369205301887
C         3.79246430970418    2.00822276966104    9.27455549407620
H         4.51783511228240    1.87905288789330   10.06466253875759
C         3.80551789281585    3.16137480808588    8.51117544188741
H         4.53586446538933    3.93475087508151    8.70362804795693
C        -1.38692475749633    8.76113182906792    6.69056631869563
C        -1.50639379376453    9.03280021736098    8.05014271426873
H        -0.63379410153841    8.95344886857652    8.68242902824070
C        -2.72389844860915    9.41271591201896    8.58519215685805
H        -2.80353846003745    9.62534940418348    9.64153997776639
C        -3.83887372658193    9.52139691265547    7.77094454390548
H        -4.78977957803153    9.81577857722884    8.19006101161968
C        -3.72929820476743    9.25190626730531    6.41694851080428
H        -4.59656590263587    9.33402563503786    5.77780678264947
C        -2.51141828239335    8.87738777204225    5.87904281072528
H        -2.42426174665083    8.66248007419691    4.82371753048673
C         3.04304232234885   11.59016485455168    2.17334355330632
C         2.09662108681007   11.84503743158997    1.18563097573685
H         1.33108576783842   11.10907674031065    0.98465749985636
C         2.13939002731502   13.02186672459555    0.46036130425159
H         1.40179866824175   13.20665693782136   -0.30708781697515
C         3.12416294941668   13.96147765134848    0.71565303129807
H         3.15557584561907   14.88115632899274    0.15041320351579
C         4.06838962839021   13.71725327449538    1.69888361813436
H         4.83700045791435   14.44824829501718    1.90393967233738
C         4.03060021219717   12.53878448611491    2.42169016811319
H         4.76386037893313   12.34879143780411    3.19295679287975
O         3.89452154137870    8.64420397042273    6.62455582575799
O         6.63927825160217    8.89649305478988    7.25688768499748
C         4.58765824330170    9.85858570030427    6.40843576308391
H         4.46925663131153   10.50476299617972    7.29165446991773
H         4.12872534554460   10.33082613997378    5.54098721031755
C         6.07421282951409    9.59320228192670    6.16588879618561
H         6.19074499534665    9.00453209727311    5.24495915533304
H         6.62854716103489   10.52871080425668    6.07791788411358
C         5.94803370033126    7.68494222100569    7.47839425028555
H         6.40847393839188    7.22333576984187    8.35324471221961
H         6.06101295762116    7.02531146655781    6.60674686566504
C         4.46057493913156    7.94769871475870    7.71840077882492
H         3.91002579048672    7.01267535108827    7.81204178325313
H         4.33676387080210    8.54826141546889    8.63253326266406
O         1.74554431638829    6.31729234404439    3.08265289277506
O         2.73083091468825    4.91945664186193    0.83030872569681
C         1.69891438387795    4.90467092877521    3.01923967709205
H         1.80739238943371    4.54154364715606    4.04019199444405
H         0.72489462546816    4.59288508106601    2.61214638853584
C         2.81989525472630    4.36821460762919    2.12776804072421
H         3.79103077212999    4.62095837263601    2.57627912552721
H         2.74045632767613    3.28665179543249    2.00989246439076
C         2.77511682552299    6.32988390993904    0.89065105591533
H         2.66288779666700    6.68677424010266   -0.13418130357005
H         3.74380940163963    6.65728413449700    1.29339491057714
C         1.65526118689764    6.86782059464185    1.78246407003249
H         0.67969732557909    6.60549704378427    1.34533813051837
H         1.73384672363727    7.94815005544680    1.89470586872208

