62
CSD_code = GEXDEU | q = 0 | S = 0 | Stoichiometry = C30H25BrN3PPdS | MND = 4
Pd       22.27911589979978    1.50859725950196    1.32120485702137
Br       24.50262916584009    1.17157125181175    2.23161742818870
S        20.28908307466169    2.01102283659565    0.22607996291901
P        22.69629428994200   -0.29998328735509    0.06929915254573
N        20.77060870604803    3.89721826257452    2.09675886640222
N        21.79337869388699    3.11009407082566    2.49940011352173
N        19.00863862420775    4.25970982316709    0.70112401040604
H        18.92887470718626    5.18941986042087    1.07526947785141
H        18.56408127144009    4.04879971738142   -0.17478164983851
C        22.34412304930218    3.35780798740076    3.64326023858742
H        23.20682807934219    2.75227036387537    3.89451455591612
C        20.06497809044966    3.50694572456875    1.08584358551015
C        21.54873835754264   -0.80072697932411   -1.25417727123006
C        22.71410844469775   -1.80339820578260    1.08512792433379
C        24.26852241918753   -0.06880570620174   -0.80645119183539
C        24.46346641052983    1.23927338234113   -1.25298132389723
H        23.69880129441511    1.99529512964538   -1.03433477068494
C        21.87471215062392   -0.76109040193053   -2.60365796748302
H        22.86162896799360   -0.44633422728268   -2.91419678098611
C        25.24572928206694   -1.02965600582294   -1.01714199332310
H        25.11762193055734   -2.03129341568790   -0.63507583287709
C        20.27204019348918   -1.19481171686251   -0.86038208040829
H        20.02342182782136   -1.20194590754842    0.19469748365733
C        22.39598021145942   -1.66481226442297    2.43349222296216
H        22.18313526507299   -0.66877978435653    2.83966078192914
C        21.94739041127927    4.35943280320994    4.61621464308242
C        22.94149693514647    4.94390570880929    5.46286674631062
C        22.52614664702189    5.86111009089091    6.46581316562026
C        20.62180191533233    4.71151164578268    4.78216586308817
H        19.87017739485476    4.26196424894779    4.15274326645313
C        24.32140331579967    4.68437906004868    5.32798953149187
H        24.67595694734930    4.01903194974316    4.55652163153386
C        22.88523583416103   -4.17797716032042    1.37219857575148
H        23.06384405300675   -5.16057099895906    0.96046272011239
C        20.93031998520206   -1.12463218588334   -3.54861252236399
H        21.18484662504866   -1.09386713541633   -4.59810268085180
C        20.22776377211750    5.61355334640667    5.77354791312828
H        19.18027912121610    5.85526588853788    5.88067429343405
C        19.33449553615615   -1.55540699663766   -1.80700888903800
H        18.34432882436393   -1.85749376900347   -1.49910842908500
C        26.58651728466512    0.60849417707722   -2.15580448985489
H        27.49471852959482    0.87011080882250   -2.67797994379135
C        22.93157908785964   -3.06856877804827    0.54844221261390
H        23.11796309692626   -3.17992693565860   -0.51109705902560
C        25.61692845513791    1.57530213846324   -1.93229880531055
H        25.77110550372122    2.58771620679393   -2.27493569201439
C        19.66416953940752   -1.52106251390400   -3.15369305947985
H        18.92995965528615   -1.79860833528894   -3.89556085599777
C        23.49213925946342    6.45303405395666    7.30634937750265
H        23.15785272009071    7.14494880613460    8.06664635446376
C        21.15802581180109    6.17606360245059    6.60238750775785
H        20.86088198476653    6.87327868017756    7.37294434377683
C        25.23380286753376    5.27766825820100    6.15821510823501
H        26.28545950856382    5.06346291737397    6.03929478187377
C        22.60235607730536   -4.03311847136300    2.72164571733272
H        22.57023318170328   -4.90358945544646    3.35989680483936
C        24.81958689223674    6.16621313766649    7.15955828657405
H        25.55422720477659    6.62416548789366    7.80559733399424
C        26.40411931585285   -0.68340265799094   -1.69336629593678
H        27.17182837989217   -1.42643048419208   -1.85129418607098
C        22.34513144983873   -2.77896769556584    3.25091432988266
H        22.10548646794117   -2.67077721113206    4.29810260075357

