60
CSD_code = GEXFEU | q = 0 | S = 0 | Stoichiometry = C19H26B10PRhS2Se | MND = 8
Rh       -0.28549476445755    0.64760459740869    3.50926557222925
Se       -1.32928263172362    1.35550294196351    5.54938471462929
S         0.83695128218386   -0.36042616414102    1.59510595629810
S         2.11258140886292   -0.21687280464938    4.19478786800879
P         0.88842326283524    2.63913275217353    2.92046455051490
C         2.14731584327436   -0.63864032675848    2.58627383966169
C         0.39777922077696    3.65965697134040    1.48486894115580
C         1.12861887947503    4.80097581887261    1.15936739276095
C         0.77660143835223    5.55852620171486    0.05919198826215
C        -0.29973379120275    5.18129789227263   -0.73001462370457
C        -1.01921855956004    4.04097783675383   -0.41838123843807
C        -0.67081710095193    3.28012083232641    0.68536123704932
C         0.81648131483256    3.83297615812766    4.30415189176484
C         1.26284741358525    3.38656096004157    5.54962225707198
C         1.18956601955485    4.20820664984331    6.65901804482168
C         0.64059986954773    5.47581205337431    6.54544171448305
C         0.15803710127867    5.90927946491560    5.32266696149858
C         0.24128498697901    5.09392081645974    4.20669894117019
C         2.68031188385665    2.57945815488460    2.53784894084664
C         3.68652734886106    2.87705438189176    3.44801151241636
C         5.01494968845428    2.73790270945330    3.08577202024047
C         5.35359682468006    2.29431056535153    1.81914274039488
C         4.35539242167083    2.00065343198679    0.90445346679311
C         3.02827902089582    2.14244731193331    1.26043881908399
B        -1.23470697970419   -0.75148210164426    5.09609051148867
B        -1.71187047989933   -1.12686104418171    3.45704299041275
B        -2.31530904660008    0.34009368645281    2.61460015718589
B        -2.29412023902155    1.77421227371928    3.67520833514691
B        -2.80397896213736   -1.44092868747487    4.86216272056585
B        -3.45793424821565   -0.82562131312805    3.31905974868159
B        -3.77878627131792    0.93150425205182    3.48905762924410
B        -3.36924948540898    1.38943219213898    5.13948006275301
B        -2.74473008421781   -0.10266460983212    5.99140539319637
B        -4.08342807732865   -0.19332177728220    4.84581266579216
H         1.97429555068055    5.08813137387013    1.76994817671800
H         1.34427658376145    6.44400005028865   -0.18730570906958
H        -0.57056233511933    5.77514456264916   -1.59044194577881
H        -1.85157598076731    3.73952827484610   -1.03647797962846
H        -1.22287979769734    2.38442670194286    0.92748496276892
H         1.66856894411890    2.38516567340631    5.64192497912310
H         1.55496350878768    3.85842441740726    7.61295991628715
H         0.57903961911324    6.11863948462750    7.41055833703935
H        -0.28804840193103    6.88897051447239    5.23474999453976
H        -0.14534464646710    5.44220557547344    3.26045471527369
H         3.43976084599311    3.22406462118781    4.43975808061751
H         5.78931146792687    2.97399305344208    3.80084652746041
H         6.39154129674613    2.17950378517709    1.54427867731761
H         4.61079594713574    1.65814080632637   -0.08752748967878
H         2.24946653677976    1.91395303499277    0.54465990309508
H        -0.37524965253236   -1.25184645616001    5.72966969855889
H        -1.23321095376773   -2.04073663991241    2.87986531330719
H        -2.23239927447904    0.44845055404180    1.43976552813486
H        -2.12564280431096    2.90603281340973    3.37703256861295
H        -2.99961416081125   -2.54368388762282    5.22681708384579
H        -4.10892080359853   -1.49571273131539    2.60198509470672
H        -4.65131442439057    1.45831778641770    2.89766699793629
H        -3.87491900654374    2.27206362254585    5.73713243205627
H        -2.83268130446897   -0.21529376938073    7.16266017551783
H        -5.17520627820295   -0.42557333647986    5.22145318101116
H         3.03686501583375   -1.09931196401095    2.17401705674732

