83
CSD_code = GEXFEX | q = 0 | S = 0 | Stoichiometry = C40H30F6O4P2Ru | MND = 6
C         9.29578529727255    0.58917788289781   13.13935400504166
C        10.21185599536909    0.57277386310242   12.08808227868889
H        10.57254508576649    1.52087359025120   11.70807011143673
C        10.63326504663165   -0.62065250470095   11.53965385033927
H        11.33713667733487   -0.65423022333602   10.72313914864823
C        10.12975257422199   -1.79976542171067   12.06620947508102
C         9.22473991299960   -1.81082864871578   13.11130360816473
H         8.86078044264113   -2.75142030887762   13.49402287112647
C         8.80712183343528   -0.60515574219277   13.64972536021014
H         8.10341623208680   -0.60020150231116   14.46827569972226
C         7.53433968273347    1.94286019760456   14.95384755618387
C         6.32254899409255    1.37512858906025   14.56391107107987
H         6.16303152539188    1.11087695558950   13.52851907383126
C         5.32490992726002    1.15293665698193   15.49293825010081
H         4.38050008634870    0.71363391999897   15.21214502910922
C         5.55024163895471    1.51136226769429   16.81212661662835
C         6.73948078387633    2.08613141235708   17.22329439240722
H         6.87346580039474    2.35909198624095   18.25828109150655
C         7.73160414194323    2.30065107010474   16.28327397616367
H         8.66549196651930    2.76091935347911   16.57573643718072
C         7.85722695870760    2.84917154045676   12.32046615799143
C         7.44143403464024    2.02736919049603   11.27586889400616
H         7.70964956846043    0.98137869617562   11.26360779378155
C         6.68633278423368    2.54173557442652   10.23763965776935
H         6.36034735061828    1.91767694434841    9.42015180849895
C         6.35075666253110    3.88347373041731   10.25426703959350
C         6.74589794680729    4.72159663284182   11.28160170540259
H         6.46732172147304    5.76360800142121   11.26154647652601
C         7.49977975286898    4.19599019563741   12.31353212515229
H         7.82328890761705    4.83900041434756   13.11934758000369
C         9.70098106919597    5.25288269263776   15.72948641144462
C         9.39364131260503    6.31658671527726   16.75612032778661
H         9.66185490664080    5.95958179901907   17.74612855939519
H         8.33620425999429    6.56741195771065   16.71314327177513
H         9.96730680424020    7.21155497796175   16.52329795109413
O        10.33046373257874    4.21765059340875   16.07007099888552
O         9.30958258053860    5.38252289826680   14.54686347389620
P         8.85850191203032    2.25451726724424   13.73545758942189
Ru       10.57954563782784    3.71724738743857   14.01821456054202
F        10.54418953809714   -2.97303629145872   11.55000643715805
F         4.57881613862962    1.29723639676079   17.71884484414432
F         5.61629011703848    4.38525890426616    9.24183501036471
C        11.86237527144086    0.58917815699491   14.89594249182872
C        10.94627927268416    0.57276721461317   15.94720994329400
H        10.58556704681652    1.52085052705708   16.32723327087109
C        10.52485494222210   -0.62066821096899   16.49562506637388
H         9.82099362218657   -0.65425615001705   17.31215227204434
C        11.02835095117113   -1.79978048012994   15.96905125528822
C        11.93339758100397   -1.81083496379128   14.92398795508025
H        12.29735304902033   -2.75142547598742   14.54126061141985
C        12.35105703377170   -0.60516158779374   14.38560410098114
H        13.05472464559627   -0.60021540286325   13.56701771677579
C        13.62398083332468    1.94277206487277   13.08144735153873
C        14.83573966055753    1.37506577733366   13.47147440594933
H        14.99518472872061    1.11082056673326   14.50688131987019
C        15.83340403868373    1.15286122252760   12.54249226265721
H        16.77778877135656    0.71354183077681   12.82333063158361
C        15.60810095694985    1.51127788251389   11.22329252125411
C        14.41888313348162    2.08605147896831   10.81206894388430
H        14.28491781023062    2.35899195514329    9.77707646423512
C        13.42673614992969    2.30058229242315   11.75204290130709
H        12.49284404186729    2.76084578570351   11.45956775289117
C        13.30066497679924    2.84922092281387   15.71483901060783
C        13.71644617290614    2.02742893801769   16.75947259016709
H        13.44832411345009    0.98140689977445   16.77169627973934
C        14.47162872176923    2.54176480763504   17.79766661677036
H        14.79761262993401    1.91770867600469   18.61515937376151
C        14.80725083698313    3.88348868210934   17.78102810799496
C        14.41213364664456    4.72160761263361   16.75367843954369
H        14.69068570395494    5.76362865293047   16.77377320611545
C        13.65823475761394    4.19601368989682   15.72174304807552
H        13.33470978329546    4.83903812973428   14.91594454664194
C        11.45609803506703    5.25335563260185   12.30641979439966
C        11.76431542722650    6.31640185135941   11.27937307919500
H        11.49615506508808    5.95928685987427   10.28937805193995
H        12.82180388117870    6.56715636817456   11.32228272390425
H        11.19085232780722    7.21155737916291   11.51188493985186
O        10.82790570120886    4.21737292963322   11.96586538053315
O        11.84928662875221    5.38223183804325   13.48854196764254
P        12.29970437456994    2.25443875353526   14.29962594906118
F        10.61392704440466   -2.97305519633386   16.48525557622916
F        16.57954112026978    1.29712019580353   10.31660533343395
F        15.54165816741269    4.38528227986113   18.79349816797808

