40
CSD_code = GEXJAX | q = 1 | S = 0 | Stoichiometry = C20H13MoN2O4(1+) | MND = 9
Mo       -3.31442591370284    3.63483497176416    7.70261439943808
N        -1.87321313367111    2.10378323047107    7.33601365866389
C         0.28206285991843    4.06978102779333   11.06055103991316
H         1.06777312273494    4.14227998141257   11.79588843366443
N        -1.76457569790839    3.92727410920558    9.13909250836695
O        -6.62200009155509    5.93890319524005    7.18001943054504
C        -0.80672374074552    2.03555313768499    8.16254439910623
C        -2.83320962204421    5.49590140575836    7.39874013935120
O        -6.64161235639681    4.33441721260949    5.61351638238434
H        -7.15735958578255    4.97764439274815    5.09933759030341
C        -0.74754232031850    3.03837082331141    9.15536914582542
C         0.31134547348094    3.06025849009872   10.09045340319061
C        -2.91653652800745    3.90770435210135    5.81916324024078
O        -2.56517050728563    6.58209151634408    7.17746267019721
C         0.19338264597859    1.04031298185272    8.08792868285719
C         0.04891730146438    0.06697440885746    7.09161018581455
H         0.78578783761408   -0.71267997204674    6.98003135302840
C        -6.31953330177588    4.83657558790274    6.81019607083019
C        -1.05592335953551    0.13088997651262    6.26390553118911
H        -1.20532501304663   -0.60362433674549    5.48915066831985
C        -1.98661767225862    1.15356523848485    6.41380826566766
H        -2.84317573353695    1.21260061409636    5.75466648321573
O        -2.70195419262921    4.11200526738705    4.71653551419521
C        -5.27401785223055    2.49861945188216    7.32846198139113
H        -5.63256174533470    1.97648833281781    6.45076622331409
C        -0.77400616451504    4.96107792143218   11.05166606949787
H        -0.83547116318490    5.74782910513225   11.78606387042958
C        -4.71678510646647    1.91430623580349    8.48349812086295
H        -4.52549541942775    0.85680222608529    8.62458793105765
C         1.32121510692886    2.05703259168514    9.98379412297736
H         2.13509482141754    2.08175979075178   10.69177265902123
C        -5.55139864579716    3.87109653867410    7.63185243171336
C        -1.76890011722277    4.86083765427130   10.08466121469331
H        -2.58652992146999    5.56981022217666   10.06808449414741
C         1.26522764796665    1.09457907564398    9.02911521380472
H         2.03390167959232    0.34019310562675    8.96386374910879
C        -5.14951237023304    4.10761826957600    8.98678200208140
H        -5.40738930225892    4.99506702873424    9.55096192851942
C        -4.63913779413370    2.89731244823545    9.49625934144637
H        -4.38190412462077    2.70725238862683   10.53170944962500

