61
CSD_code = GEXLIH | q = 0 | S = 0 | Stoichiometry = C22H20F12O4P2Pd | MND = 4
Pd        5.22847716077945    8.46805438641455    9.46240900093442
P         5.89758444996661    6.31619089697830   10.15235357445587
P         3.07869178955288    8.25449902822205   10.35793722294185
F         5.39685307550470    9.14117222583593   12.00460272630510
F         2.39615609896587    5.92989145049067    9.30032752279788
C         8.72256951995228    6.34019827334592   10.01242871104719
F         3.97459061912934    9.55358873681644   13.58589944837229
C         7.54269496045175    6.18003195595722    9.27981911293775
F         2.08754185135570    4.02266626755117   10.21773830567974
C         2.99368304426906    4.78773556435141   12.62967609833360
H         2.55088017411559    3.80991820698659   12.50994916904335
C         4.14070574548800    7.29360031435181   12.88805651754211
F         5.80252871650680    8.54017045115230   14.01622776740682
C         6.01712996123281    3.93114905533314   11.08556941133189
H         5.39369956282255    3.47182214831939   11.85648111881850
H         6.99918150141949    3.45002694792423   11.08120503203625
C         3.75357952278229    5.07916727001793   13.74643966510463
H         3.90231858777342    4.33545747701424   14.51291561125984
F         0.69126622086564    5.59984425343820   10.58634291176712
C         2.00433860468529    5.35099260191260   10.43683227532863
C         5.35866703079097    3.87580112276399    9.69262295992694
H         6.04576406195513    3.45721134637054    8.95164037090310
H         4.43286799776049    3.29827229507505    9.68680720409862
C         4.82373074510113    8.62427055332968   13.10291710524704
C         4.34411219065629    6.32370369258732   13.86200316448198
H         4.97120953068024    6.54380406465264   14.71168627176253
C         7.66369866251981    6.08193497591951    7.88904608270407
C         3.33076991033843    7.04272198653193   11.77263925393222
C         2.80595135434817    5.75274713227629   11.64816434024680
O         5.02721414200159    5.20873637538320    9.34744283649278
O         1.46118905528826    8.14174103925272   10.16744742336220
F         5.45566237169057    6.86305957180923    7.33530172714380
F         7.60835314394735    7.33851686296637   11.86773024856057
F         8.67183819235162    5.49065907199387   12.23301982736868
F         9.74929672662757    7.30606963510579   11.90196428983811
O         2.98783428184213    9.67338387672329   11.13937808471407
F         6.78897264521492    6.42024689638934    5.72463572912996
F         5.94697147054591    4.81077225654762    6.84919547862176
O         6.16315969449029    5.29771584010612   11.41785122021697
C         9.97194150265282    6.28611122804858    9.40886293945379
H        10.86176882531366    6.40610632268214   10.00773775657736
C         8.67456634846706    6.61480045653203   11.49285621475445
C        10.06622829814477    6.09815443980842    8.04286035465547
H        11.03213738761728    6.04382576918361    7.56753330676894
C         6.46027547738106    6.05039771199595    6.97400400262821
C         8.91312272896186    6.02181913214715    7.28266857100611
H         8.98143930269873    5.92955756859364    6.20960659425382
C         0.75209461169067    8.90695603401467   11.12212967336923
H         0.51104844263129    8.28483538047679   11.99131627094662
H        -0.17103497175514    9.24799054677946   10.65169728035827
C         4.64307771231134    9.98912687072482    8.22627096410485
H         3.76456717335842    9.57484128954036    7.71280319054723
H         5.37245136275060   10.29856315314071    7.47623651331996
H         4.34416195955845   10.85641762985336    8.82117782773199
C         7.09383959742930    9.28990898802974    9.18053967183972
H         7.53815532117901    9.02438830083256    8.21518350377467
H         7.74096733084307    8.91479142471796    9.98085611745889
H         7.06629482382652   10.37898627206984    9.26428017432487
C         1.68118929485177   10.06484521624500   11.51855628199785
H         1.43624873367193   10.98469909517128   10.97978435491679
H         1.66172436063005   10.25533106117280   12.59413361299529

