28
CSD_code = GEXLUT | q = 0 | S = 0 | Stoichiometry = C10H7AuClF6O2P | MND = 2
Au        1.55482994954440    5.44436463758275    0.32481548420388
P         1.85406673309517    3.57413607353430    1.56602899422416
Cl        1.05316688595954    7.27683614199588   -0.87581753413899
C         0.22130232438889    2.78781665715291    3.35427828008998
H        -0.56199340084560    3.29479971574293    3.91875963457513
H         0.65320195526549    1.98420990877921    3.95903588079929
O         0.87542445462033    2.34644833578410    1.15156102858142
O         1.22856791907309    3.74354521128667    3.04770212122927
C        -0.26054719334644    2.27110040798335    1.99668611026431
H        -0.58306343498388    1.22922412741560    2.02309059286358
H        -1.06246105342065    2.90037369032588    1.59924385220742
F         3.38619463345741    5.08831680028466    3.12100374292473
F         2.11163485209792    0.43053294610403   -0.17668835341629
F         5.09178562259358    4.60821878686399    4.33401990572871
F         3.17613368920270    3.81691870901874    4.86325222488536
F         2.52482265702643    2.47757229126089   -0.75386314524444
F         3.90068031889856    0.90486559383012   -1.24730159280993
C         4.94177425586643    0.81653554034421    1.27473171851180
H         5.22086497779751    0.02842810342937    0.59193066927142
C         4.24787697850671    2.90119313993188    2.94827345084538
C         5.36787350770986    2.12930856241184    3.22879531299676
H         5.98113430483120    2.37323873520420    4.08296638482959
C         3.82329904422664    1.59282554677906    1.00152852626133
C         3.42050057186744    2.61468858925178    1.86183438549958
C         5.69780695233227    1.06696940498705    2.40621669350567
H         6.55892168436666    0.45759871477597    2.62801597770914
C         3.07955857260063    1.34796880726547   -0.28539515222780
C         3.96604223728218    4.09826482064486    3.81849480583675

