38
CSD_code = GEXLAY | q = 0 | S = 0 | Stoichiometry = C17H13MnN2O5 | MND = 8
H         7.33520991408047    1.01790290849018   -2.74444371042210
Mn       10.38396863258816    5.95573595983809    3.02828442688507
O        11.27843787410682    6.68355304883308    5.72729433324708
O        13.07474918393818    5.77565615965970    1.88079695125935
O        10.10786565260893    3.07599123758659    3.49846190972459
O         4.96762778987807    3.11405464752895    1.34486211987029
O         7.03394151565769    1.52633753563172   -1.97995646356540
N         7.34403648006494    4.24420690195769    0.82265630443938
N         6.83125756073766    3.26436027424356    0.06809530914719
H         7.33745892184709    2.90608113527911   -0.73745965464320
C        10.95087990905320    6.37331378807506    4.67160233203087
C        12.03470624676159    5.83360560686297    2.36844392840372
C        10.25599949929496    4.20295419976765    3.34881375271186
C         9.75310931844265    6.93887866927784    1.20697726404524
H        10.26394788844818    7.13170109279724    0.27263628577843
C         9.67572873100776    7.84540687708918    2.29145683045515
H        10.10492158922322    8.83874806082910    2.30787077890897
C         8.72726152147307    7.33976014071231    3.21902203100546
H         8.34766257734155    7.87023415039750    4.08223516159197
C         8.24125114515188    6.11463239600840    2.72719153994882
H         7.41304204538437    5.54163956179803    3.11714918725368
C         8.86499115552530    5.85693467901620    1.46522235067774
C         8.46453570796698    4.79368447855459    0.55058658254004
C         9.35919485805910    4.43609325425101   -0.61045359708825
H         9.44767048260623    3.35268330084607   -0.69800991249761
H        10.35670995563819    4.84393268316963   -0.47119114529973
H         8.94584353686764    4.82209535893778   -1.54385000391219
C         5.61977944515877    2.71871597267983    0.40383902411546
C         5.14802430440475    1.60191122283287   -0.47113156860764
C         3.90854054554379    1.06406569427196   -0.12060139995055
H         3.41230085064875    1.50186119940104    0.73250338465205
C         3.33500456419313    0.02324249733228   -0.81973435893986
H         2.37553730728585   -0.36905548756131   -0.52177070149619
C         4.00479498222034   -0.51312222667731   -1.90660675808536
H         3.57696185839284   -1.32925545917181   -2.46863808952139
C         5.23290996804408    0.00047428796775   -2.27537729977981
H         5.76006777648558   -0.41671818912020   -3.12443956785099
C         5.81506870384178    1.05090238059465   -1.57403755700919

