34
CSD_code = GEXMII | q = 0 | S = 0 | Stoichiometry = C17H11HgN5 | MND = 5
Hg        7.81527143810322    8.94105457191528    6.07923247523232
N         6.57012365935994    7.74742509273376    4.08081352866961
C         5.85247191407269    8.49289081735922    3.25788550565606
H         6.24289967117965    9.48259866360473    3.05963607153637
C         4.67545989588342    8.05859021884146    2.66883277624000
H         4.12629331395708    8.70496277761204    2.00335939131735
N         7.80958479181360    6.36858902367920    6.08235726144614
C         4.22127212642553    6.78696274381297    2.97714966459012
H         3.29421963007432    6.41619856660172    2.56546642420190
N        10.82120806683194    9.57799817927497    4.88403902855006
C         4.97486994935240    5.99630304076378    3.82668735790965
H         4.63095078844944    5.01126827946465    4.09924714742573
C         6.16047026764867    6.50740977473266    4.35340949741736
C         7.01912440457630    5.70513868658588    5.24443295642850
C         7.01296968634118    4.31031071210614    5.19513346103683
H         6.40621940982071    3.78578744863722    4.47512111560198
C         9.74711229382661    9.37174817325968    5.23705736949629
C         7.81435561625864    3.61017239479824    6.07844639820235
H         7.81639644302012    2.53016036775692    6.07676282551903
N         9.04271923069906    7.74627645587423    8.08773459185321
C         9.75605699616321    8.49193133056606    8.91420164480916
H         9.36140195337330    9.47954209283612    9.11468011252716
C        10.93342197471546    8.06008587347280    9.50436421743592
H        11.47897263962589    8.70645495027561   10.17281568985658
C        11.39273750439242    6.79100555912985    9.19320120149450
H        12.32048138545917    6.42250654563896    9.60532579771179
C        10.64341539313365    5.99990013164776    8.34029125380841
H        10.99134157567503    5.01685616350869    8.06564183941159
C         9.45701106743766    6.50829729744242    7.81282069226351
C         8.60205219922504    5.70551788077927    6.91871015424997
C         8.61301715718712    4.31057707347111    6.96400875841309
H         9.22153344876126    3.78609260497949    7.68255791673046
N         4.82033507611336    9.61391856115998    7.28203908885722
C         5.89022903104946    9.39446794557311    6.92443678408631

