42
CSD_code = GEXMOO | q = 0 | S = 0 | Stoichiometry = C21H13HgN7 | MND = 5
Hg        4.54692167584852    3.86046116502331    3.54731500291713
C         6.18005889310936    6.90974248572842    2.26868731413225
N         5.07256579727548    1.34875122379943    3.94962573229363
N         6.13424810332919   -0.54411503902681    3.47921502062887
H         4.54010270535029    7.62041747916593    3.46181777357602
C         5.34554542185443    7.89116942483770    2.79765894529827
N         6.73694990248229    2.88094326930776    2.41340119373873
H         4.97502100884311    9.98520249623355    2.83020713531855
C         5.59984137027508    9.19605178495624    2.44070492370375
N         6.17360867781375    5.55739851839858    2.44052207572174
C         6.65191667221214    9.53395008789739    1.58171268715230
H         6.80876749613074   10.57214662561327    1.33079805501773
C         7.49193366615246    8.57832414519360    1.04891967673721
H         8.30338669210354    8.84236408798516    0.38781923468800
N         7.85183057119384    6.07698316287628    1.08191566762946
C         7.24345073451372    7.26107060363898    1.40401316218137
H         8.64867443307407    5.96757164674330    0.47800149963839
N         5.03285176598461    4.85356569584022    6.64877958688606
N         2.88802481668786    3.28398428178695    0.75195022961884
C         7.17025470565041    5.08467370715190    1.73078644707343
C         7.49651431090547    3.67297192296935    1.66341934629325
C         8.53174133480547    3.16613810384195    0.87234703472506
H         9.14067419171454    3.81432373301945    0.26224137880246
C         8.76005845015851    1.80152415422294    0.87953722539325
H         9.55021736091881    1.37866631168985    0.27683223825926
C         7.96642233375250    0.98271182069641    1.66328620249009
H         8.13169638690341   -0.08301811011417    1.67407179631453
C         6.95101420818107    1.56905210237886    2.42437983187760
H         6.80082410100427   -1.17951385933947    3.07498717247643
C         6.05809847860715    0.80595639078713    3.27547038886265
C         4.46284544700475    0.33742206840317    4.63054518209765
C         5.12557622616083   -0.87905239268585    4.34321792254194
C         4.71903039899593   -2.08190393766916    4.90080955485833
H         5.22660127051455   -3.00819955462861    4.67856339177554
C         3.63509792129107   -2.03654809466841    5.75262143578630
H         3.28449043423155   -2.95008344035423    6.20857595714835
C         2.97511976354668   -0.83738248818739    6.04462842205227
H         2.13342754341290   -0.86009528733860    6.71988727478017
C         3.37156054657925    0.36085742717571    5.49537911305067
H         2.87219973555035    1.29094464836502    5.71594480754854
C         4.88675733668804    4.50040453769221    5.56493340578746
C         3.42347710913890    3.50266709061080    1.74556955329033

