43
CSD_code = GEXNAY | q = 0 | S = 0 | Stoichiometry = C13H27P2V | MND = 9
V         1.69177075561533    3.05393607819441    1.98351884102835
P         1.68921999399906    1.33478085861682    3.54750822799775
P         2.67636864660979    1.87026855330652    0.27706800152367
C         1.70885871800599    4.78428038574290    3.42662921619308
C         1.85975223165861    5.19151086518325    2.09098702430951
C         3.05397431951716    4.64165954285503    1.59084707490840
C         3.63999422025152    3.88098218918624    2.62644988409082
C         2.81751221215886    3.99439039922312    3.76004283323303
C         3.26349181745187    0.50638281405887    4.03645735226182
C         0.96773740879033    1.61155972846307    5.22627033034439
C         0.70389302187645   -0.16229722941669    3.12287415876519
C         2.35239515605272    0.10556063639364   -0.17132211525884
C         2.39114116964379    2.59745567818931   -1.39662718883098
C         4.52125341958068    1.78119473230865    0.21157759526422
C        -0.00632466099257    2.49218052238338    0.91058215487499
C        -0.37382962938890    3.12530612712781    2.11448544834493
H         0.93438578895982    5.10597092443308    4.10777003445732
H         1.22523984440526    5.89971405350230    1.56935707757684
H         3.52995596892704    4.90815418965749    0.65418302501138
H         4.63067836469886    3.44558182663887    2.61590609538333
H         3.06841390526832    3.63697049187227    4.75001466303014
H         3.08714780283302   -0.25078073945446    4.80105554013276
H         3.69649033695159    0.04238626757489    3.15117516832270
H         3.96077338946062    1.25154567224486    4.41456782030632
H         0.91537300481543    0.67373653336648    5.78066683219265
H         1.56823124025964    2.32645926635452    5.78287347159666
H        -0.03364455387704    2.02103687545319    5.10715687419265
H         1.06384814757399   -0.58611566051451    2.18949414867289
H        -0.33728383809291    0.12866846633138    2.99645746158487
H         0.78106520549313   -0.90520712839199    3.91776720987572
H         2.75940270500782   -0.54310102850130    0.60295082489237
H         2.82877108563744   -0.12918800412577   -1.12363368271455
H         1.28064134551262   -0.06250622973286   -0.25518887510798
H         3.10126495331259    2.19804198415267   -2.12143687375501
H         2.50035774203565    3.67921661308474   -1.33659841220543
H         1.37683942530971    2.36584696112742   -1.71693164426489
H         4.88575671782656    1.29269704105365    1.11378270737092
H         4.92520449373491    2.79014813065255    0.17244429668954
H         4.85346736146651    1.22307062221623   -0.66417931506960
H        -0.27031104091437    1.44310895357370    0.77488800244200
H        -0.12020902378642    3.07208468559868   -0.00630889160570
H        -0.87559830554959    2.52905163261475    2.87489165756820
H        -0.76237086808594    4.14045571738961    2.05562594437433

