52
CSD_code = GEXXIS | q = 1 | S = 0 | Stoichiometry = C25H21MoN2O3(1+) | MND = 9
Mo       -0.40822653483251    2.56014588220667    4.53695661556832
C        -2.33043705572338    7.17250452637877    7.08245382734444
H        -3.28170298863270    6.74537900464368    6.79493438624393
N        -1.47750344154971    3.49267836126288    2.97288301906635
N        -2.34296361809153    1.71902900181291    4.53280921167903
C         0.72089087290107    2.16431361437685    3.00561023074483
C        -1.06514680406848    3.69795580999546    6.45204046611443
H        -2.03250410648094    3.76083209937718    6.93721038948224
C         0.81337871377511    4.34585151669755    5.32286200663959
H         1.53249442436486    4.98117825191118    4.82104261897531
C        -4.97073724928334    0.78003479848676    4.63908541585769
H        -5.98059246909017    0.40487357970602    4.67647489577828
C        -2.77752249266443    3.19092524203977    2.76854393189720
C        -3.27771754867217    2.17759289743750    3.67126721505814
C        -3.53707301922115    3.83417549181847    1.78483524389791
H        -4.56847899466714    3.56236290244374    1.63483011087843
C         0.02857747931978    0.66514420148528    4.50311502912009
O        -0.90242692300083    9.42685855019643    9.60874991995191
C        -1.19210190808623    6.88133424234504    6.35029444630046
O         0.31396376235393   -0.44019059806120    4.44583533357243
C        -0.92617373722402    4.44864709246805    2.21632373426807
H         0.12064255722727    4.65736338141446    2.39525361125477
C        -4.59835750390318    1.71562999897412    3.69922809231209
H        -5.31649300287502    2.09175349841646    2.98990858851284
C        -1.07217045231163    8.58881024655857    8.56297397710387
C         0.08036755461352    8.28731253904894    7.82958364784384
H         1.01220170454834    8.73347928091830    8.13724891809211
C        -4.00862584142585    0.33380512753596    5.54382852135261
H        -4.25422666314928   -0.39080058632767    6.30257719106332
C        -2.28256700018662    8.02055311961063    8.17632155875945
H        -3.19283444980929    8.23068033705989    8.71468109622650
C        -2.02383749654085    9.80102619202904   10.37708508381863
H        -2.77433904928040   10.31292062909933    9.76715467292578
H        -1.64533754031363   10.48728089989014   11.13222783029513
H        -2.47881522893751    8.93646674026114   10.87028183953449
C        -2.72499450604752    0.82267095740185    5.45100872090853
H        -1.95841555796416    0.47600977462067    6.13172094375440
C        -2.95395514961460    4.81239858735809    1.00963920081199
H        -3.51721689698130    5.31791496932141    0.24209513987217
C        -1.61634728789857    5.13015454130019    1.23906993756986
H        -1.11869526174855    5.88868579787253    0.65768590401209
C        -0.54551334503068    4.66770783256467    5.55995124978814
C         0.01774713635835    7.44661822789736    6.74244908179103
H         0.91843064004778    7.23042128951461    6.18658056338670
C        -1.24256924377367    5.93769847703102    5.16522203055548
H        -0.74261048571304    6.39640924146772    4.30716846227232
H        -2.28731355974968    5.74749355324944    4.89871647087310
C        -0.03428217949772    2.79188861910134    6.78727388076935
H        -0.06923308468569    2.06071299952669    7.58502723284549
C         1.13839460820756    3.18307641569906    6.07975957353735
H         2.14139118145601    2.82076795068444    6.27571539991250
O         1.38767904354490    1.90186289186672    2.11430352980521

