46
CSD_code = GEXYAL | q = 0 | S = 0 | Stoichiometry = C22H20MoO3 | MND = 10
Mo        1.43361051229237    1.73041680415341    8.22885852487258
C        -1.37633792388122   -1.40872973012811   13.60832413994424
H        -1.14819495352382   -1.46294977391710   14.66097312388506
C         2.99051324708001    0.67440325777814    8.61442125917370
O        -3.60745955600456   -1.75968121272826   14.21021123984702
C         0.39413024628125   -0.88094287639936   10.29159149449219
H         1.36668097009066   -0.83290517999006   10.78793795181388
H         0.42193085016815   -1.70256339956097    9.57025086552154
C        -0.38493550537908   -1.19829601955069   12.67384782248691
H         0.63857399443638   -1.08638555669391   13.00143207268755
C        -1.72202761976654    2.40571266056073    7.12681905670357
H        -1.97264543640111    3.45366790512783    7.02428513530415
C        -0.91543680023046    1.97850824711694    8.20579547616573
C        -0.62436391671174    0.57342498082968    8.36777898739582
C        -1.90416088530940    0.10185497443907    6.39604323160699
H        -2.30840541181319   -0.59718650308644    5.67851297998957
C        -0.35760533434654    2.67214518279905    9.31545657210459
H        -0.55330561605411    3.70332505645299    9.57892658190198
C        -1.12818703096049   -0.35263324077055    7.42775196459746
H        -0.92796317044995   -1.40993323478587    7.54527038126874
C        -3.01441518293748   -1.48563516368827   11.85622274428770
H        -4.03061651441098   -1.59170075347681   11.51014914966790
C        -0.68516286990411   -1.13420233153404   11.31852150883405
O         3.91483704307777    0.03817100684465    8.86629559127501
C        -2.20406563098424    1.47312111259227    6.24957708752328
H        -2.83358684000842    1.78111240982157    5.42748241495858
C        -4.96277816991228   -1.91838029296001   13.87087977592683
H        -5.36101239680906   -1.02718268132857   13.37454433742309
H        -5.48704865121631   -2.06859041532860   14.81336450531063
H        -5.11767607303545   -2.79174595657391   13.22870528641474
C        -2.00852350357789   -1.27578793232603   10.92888360790270
H        -2.26798883243141   -1.21919392029817    9.88114243958289
C         2.72898764164420    3.09627284733574    8.59343291824745
C         0.22201651838933    1.70158341243439   10.17873132109653
H         0.53994765342247    1.88237501721057   11.20109379806286
C         0.10733193831583    0.41369307551845    9.58322758640768
O         3.50034323744742    3.91775074009680    8.81504425845889
C        -2.70512475115414   -1.55574914848130   13.20980629854779
C         1.44767709683101    1.66186088601384    6.02441293669246
H         0.49471674772323    1.41284574026141    5.55647542570471
C         2.37636833260938    0.65395191597231    6.38145566868340
H         3.42951440899120    0.85025341258030    6.19319917324073
H         2.09036091684014   -0.37350992708534    6.17391266919204
C         1.81291856856787    2.99491690304769    6.30205097793545
H         1.09308728418474    3.76921485682123    6.05347522022898
H         2.84228136880854    3.29350284488879    6.12722443662437

