75
CSD_code = GEYCEU | q = 0 | S = 0 | Stoichiometry = C31H38ClIrN2O2 | MND = 6
Ir        2.68713169823518    3.21085409174096    0.69829223706984
Cl        0.34692767904299    3.38166810904687    0.83701130077217
C         2.41310313722998    4.07402481580166   -1.09709070144358
O         1.51559857204448    7.24904521835820   -2.41776145277427
C         1.43279784536495    0.93338430693697   -1.74060378224168
C         1.82728255395310    6.92657059605861    0.61044363333652
C         0.35434794126334    6.69523149950336    0.57460805348633
H        -0.13604843232012    7.22504437958176    1.38626844779367
H         0.12458363846088    5.63445189259346    0.66036988853205
H        -0.05644160444183    7.04938643690601   -0.36955225544645
O         1.35965678858397    2.86736246898304   -4.25887717067305
C         4.89098609346983    6.27386843718228   -1.53999276533594
H         4.89587861880628    5.18831630498866   -1.61547779168721
H         5.91354360202617    6.61707149475997   -1.40730675514587
H         4.51448913151910    6.67320771276920   -2.48223093707605
C         3.72693250173289    1.46594654684823   -2.33076497085845
C         4.53182688630521    7.59454219641954    0.55698107875534
H         5.57181271546205    7.88501783258408    0.51360886921621
C         3.13921257129911   -0.79262208839903   -1.70380723024086
C         2.68573562763269    6.35150360792715   -0.32551972081254
C         2.42565207541675    1.87305933933466   -2.03028437741466
C         4.07135707196624    0.13704636675905   -2.13911012770408
H         5.08286220504065   -0.18014245987496   -2.35013896643587
C         1.82238027096313   -0.38532099631801   -1.55084011548442
H         1.07095419578912   -1.11809959531816   -1.29313236128786
C         4.02641161230903    6.73662616771271   -0.40493907726692
C         1.55119448907643    3.67496183751184   -3.37262972041816
C         2.37893351697898    7.77489036464487    1.56352451519656
H         1.72886282309193    8.20351941867067    2.31245188424846
C         3.52370513548113   -2.22384957892016   -1.47757955040478
H         4.59838821713739   -2.32286233916715   -1.34463516656307
H         3.22957766075314   -2.82887166749460   -2.33536746650050
H         3.02046246424273   -2.62482848061869   -0.59992139920331
C         1.28542560362863    5.08478012666053   -3.45880615241074
H         0.83410940174635    5.43856818994141   -4.36842931657863
C         1.63649906518645    5.90796240958657   -2.44230549977677
C         0.92064718443811    7.88541979645331   -3.52767939949970
H         0.90904525089593    8.94564457157515   -3.28287606907351
H        -0.10205362515406    7.53303265848077   -3.68543310837022
H         1.50573125202064    7.72481106997772   -4.43744329216255
C        -0.01330478393301    1.30228125037451   -1.71966563442878
H        -0.21382989957412    2.09483977460864   -1.00253592064343
H        -0.62431422840933    0.44008234166159   -1.46702409079034
H        -0.30364802554203    1.66046509547662   -2.70670709896968
C         2.67201911450282    2.71384288600095    2.84719060056855
H         1.75245531147689    3.13808085700016    3.24033441530071
C         4.65251474252151    3.84203191635090    1.22323596299221
H         4.99905232502419    4.69020423693351    0.64047233289659
C         3.92518183988898    3.15193077869457    3.56662671843872
H         4.50862601325602    2.27293134757946    3.84362282721209
H         3.64630703472827    3.65946640993270    4.49202996034002
C         2.57694068548602    1.56188036583198    2.09752639425924
H         1.59014538094158    1.12442426778843    1.95914439180243
C         4.73780171236692    2.57555647539774    0.62011674132245
H         5.12250408730046    2.55157087491837   -0.39213456460707
C         3.72574916452881    8.09492674768551    1.57141578862897
C         5.00316603741907    1.29363102464473    1.38352262993101
H         5.55850157672207    0.60931235978834    0.73959579719105
H         5.63604149403341    1.51103404755064    2.24547453812956
C         4.70966193271089    2.41402377973054   -2.95120239686987
H         4.66825746085540    3.40047523366002   -2.49592407195971
H         4.46428385835061    2.52778045704416   -4.00840760423558
H         5.72398748986084    2.02897914822393   -2.87596760492029
C         4.76608372514016    4.10999205539610    2.70723117970512
H         4.42814929524238    5.13448639216219    2.87993803421242
H         5.81942620286784    4.06007123386180    3.00484209989701
C         3.70408533810479    0.59795081454173    1.82449002108559
H         3.88405192092363   -0.01247837713001    2.71614825151421
H         3.38134226474247   -0.07426563037572    1.02705762901024
C         4.30753659402447    8.99598789789993    2.61766194200188
H         3.56329897969159    9.25712564651295    3.36508196685408
H         4.67946772848197    9.91349397959344    2.16295786612055
H         5.14561018754041    8.50871115918411    3.11384224619631
N         2.10371100153104    3.27345754604765   -2.14552163987445
N         2.20443300050601    5.40729254523560   -1.29979291642361

