59
CSD_code = GEYXOZ | q = 0 | S = 0 | Stoichiometry = C22H28Br2N6Ni | MND = 4
Ni        2.96523367088732    7.82425133773817    1.28517420604338
Br        1.49161024297428    7.49023575755777   -0.43224105153150
Br        5.08116705387020    7.83354955556387    2.13377987871532
N         2.47967203396871    9.91207082272259    1.77220822060678
N         2.57927065494602   10.94183863530877   -0.30729505296382
N         1.57318515612226   12.08287340659744    1.32591606463484
N         2.24795492232651    6.54407832593869    2.47655614185490
N         2.37215438392628    4.68421880032874    3.95667878055430
N         3.67522630120311    4.70920328210314    2.14946397915556
C         2.55327420554316    9.98225006028087    3.16368155651067
C         3.45751668743421   10.87509935199808    3.74845320085185
H         4.02097611698947   11.53254010792967    3.10173112679134
C         3.65193922042734   10.89711994055876    5.11252093817544
H         4.36558265373216   11.58493804132258    5.54084619294341
C         2.93644732503647   10.03470464186995    5.92786722947001
H         3.08716803887176   10.04144657019643    6.99690594128078
C         2.02306182622436    9.16460068080732    5.36367995572210
H         1.44539183808227    8.50226892817780    5.99487705779757
C         1.82437694004859    9.11047749085578    3.98813252255307
C         0.75076956151654    8.21499901513861    3.49302306797158
C        -0.56002466043957    8.59033395696163    3.77540108606028
H        -0.72652837458050    9.53560037625880    4.27385291131404
C        -1.63375535308733    7.79119893612973    3.43402694275381
H        -2.64004747107555    8.11662473243253    3.65109984971150
C        -1.41053929500932    6.57209570074848    2.81283267130838
H        -2.23988242362525    5.93616621935671    2.54305208019341
C        -0.12249357565583    6.17441090366304    2.52884761938533
H         0.06478985261863    5.23625116781282    2.02654858377324
C         0.97091726304532    6.98471053869946    2.85551677056566
C         2.23503978498221   10.91926785732775    1.00255035365465
C         2.19822314327454   12.18771639501260   -0.92977421502138
H         1.70901821198776   12.00294230777249   -1.89005887453743
H         3.08522645872143   12.81284580156883   -1.10522930930154
C         1.26108390354155   12.80896200060598    0.10538287317041
H         1.43434677938555   13.87851336198562    0.24899878146274
H         0.20821310120047   12.65786299499432   -0.16905135893111
C         3.62711646324894   10.15888215206984   -0.89864532967698
H         3.89248858209487    9.33659010908484   -0.22457377918607
H         4.52191884775051   10.76761557018112   -1.06960858201452
H         3.28729288640531    9.73626567905867   -1.84536510318344
C         0.58583937831469   12.15425859858305    2.37467073410160
H        -0.33589731583203   11.62587896403555    2.10035239504873
H         0.35296483189789   13.20403078056936    2.55255701333663
H         0.98203381836714   11.72409327362619    3.29120199734414
C         2.72734742559546    5.38421060146968    2.82735849312171
C         3.32968999285347    3.60723237057367    4.16614465545625
H         2.80631734171007    2.69737100989591    4.46942132422122
H         4.04352202243915    3.88326712523125    4.95255036434286
C         4.02260956731460    3.47301281630649    2.81172452156836
H         5.10846662720875    3.37835011046425    2.89684939172567
H         3.64108175011113    2.61848944746119    2.23733344952269
C         1.88155090853059    5.33162750389580    5.15171775016304
H         2.60546868484652    6.05321456304572    5.54760943723590
H         1.69969683233917    4.56107204045884    5.89919529298471
H         0.94383380871243    5.84412924270932    4.94761930697534
C         4.05470993017976    4.87995613446965    0.77405736084135
H         3.64251799562090    4.07382928532247    0.15934374962841
H         5.14262693119748    4.88325467725485    0.69407470247655
H         3.67533650967727    5.83879993991607    0.39345413126459

