37
CSD_code = GEZGEA | q = 0 | S = 0 | Stoichiometry = C12H19Br2NNiS2 | MND = 5
Br        4.08371982518272    5.43083484214398    2.63786689303387
C         5.61414618816211    9.68024413509751    2.65342610544035
Br        2.63937036243474    7.83703682132958   -0.72864842629340
C         6.18981316719022   10.92519515396144    2.88073924415004
H         6.01139534409420   11.74700824354749    2.20144958121697
Ni        3.79442482396107    7.25528014190239    1.25228691129697
S         5.53229468634396    6.80575255451082   -0.02919462330236
S         2.06993529216791    8.06682338420173    2.36025337119641
N         4.75838893962938    9.42789079431933    1.51308315332211
C         5.51071847696003    9.57451165372320    0.25951300269834
H         4.80491624884569    9.59863048025734   -0.57451812490842
H         6.09894470602187   10.50305232911017    0.24051405886449
C         6.45125900492289    8.39227517192317    0.08502097861295
H         7.13110672440724    8.31194780117598    0.93374487252438
H         7.02252517841586    8.49222332171649   -0.83803994660795
C         6.78076049024561    5.73703183226913    0.73279220047798
H         7.67192627192664    5.77207167471343    0.11183198920520
H         7.00006627853053    6.05492998042514    1.74755294383347
H         6.37696581690672    4.72938342023654    0.74808072390870
C         3.56291974359992   10.28065238426576    1.56095618936721
H         3.81479596706387   11.33329330831846    1.75228690688428
H         3.04940788644925   10.22178163833430    0.59820902940723
C         6.99937088371462   11.12034602601119    3.98482652939431
H         7.44172427684637   12.09055299302684    4.15560281931315
C         2.62969014353127    9.79161026736812    2.65746621389051
H         1.73355164910939   10.41085016906775    2.69887910100296
H         3.13265055055409    9.80381684131394    3.62475332083051
C         7.24377756950370   10.08107942452535    4.86793387581301
H         7.87659502166442   10.24090366309483    5.72755764361644
C         1.97270626382061    7.53440749727222    4.08929869734331
H         2.93869327475206    7.62041431316693    4.57792168092159
H         1.22806600704473    8.15113370404852    4.58541936922039
H         1.65677158353207    6.49564290231427    4.09109818451756
C         6.67489350530098    8.84007479146450    4.64331896147235
H         6.85812426516820    8.02195782363766    5.32309175905877
C         5.86352599047207    8.64372009816584    3.53936462339105
H         5.41485759152424    7.67403841803797    3.36026018588339

