63
CSD_code = GEZGOK | q = 0 | S = 0 | Stoichiometry = C22H35Br2NNiS2 | MND = 5
Br       14.56472117451874    8.81130746165022   -4.18476646633580
Br       11.57024084068243   11.86327875287540   -3.43065373538980
Ni       13.52818047808934   10.50953290454637   -2.94210684147803
S        12.49965247670274    8.95597492168770   -1.75473717734062
S        15.06801681075406   11.97356271019397   -3.60200248537110
N        13.82163239444383   11.51858179567714   -0.84472771442440
C        12.24955370916869    9.77556681984416   -0.13282573652294
H        11.22692990209283    9.58979308402084    0.18784370512633
H        12.94088195669968    9.26501441615928    0.54011998224037
C        12.53995219273818   11.26906937130218   -0.17389604091830
H        11.75320464674711   11.77420163195905   -0.74068510967337
H        12.52676161359678   11.66621655308394    0.85206248588794
C        14.93214277285773   11.02090887308837   -0.06363512175405
C        15.21578778661603   11.51537011221249    1.20384941830468
H        14.60530981904665   12.29358702345284    1.64076446237109
C        16.28799728124059   11.01062951736943    1.91672686996562
H        16.50270271798688   11.39853050607773    2.90166880550441
C        17.08284704201047   10.01442624006451    1.37376976691252
H        17.91777982737581    9.62489109209606    1.93633397695764
C        16.80388189721338    9.52205489815207    0.11098922744042
H        17.41687564955537    8.74679953431107   -0.32215471437089
C        15.73172658218794   10.02521775009950   -0.60404366448025
H        15.51323235952362    9.63985983457774   -1.59428994365496
C        14.00391318112688   12.93385404342340   -1.18882146690871
H        14.18879433643121   13.55314744311968   -0.29791788370474
H        13.08670895777565   13.29260022414858   -1.66425807801195
C        15.16871792063879   13.09451629973711   -2.15463035183580
H        16.11049505283643   12.83099049236368   -1.66952527389567
H        15.22488828944923   14.11745869030777   -2.52053662252954
C        14.40040685662867   13.05972671528656   -4.92729520908262
H        13.53856002515227   13.57516286819502   -4.49665702675295
C        13.95601421855667   12.17355082865152   -6.08625210396811
H        13.28094883165632   11.39453485321284   -5.71820530933128
H        13.39407419350961   12.79284869574773   -6.78973143078187
C        15.13879875353461   11.51919586832754   -6.79099210874231
H        15.62855512508294   10.82286009326838   -6.10782239037031
H        14.77413183556545   10.94131389114567   -7.64092366269039
C        16.14340940626111   12.56621308869703   -7.25597698530520
H        16.98943823685556   12.07812080232260   -7.74200091827936
H        15.67307309530664   13.23086010046934   -7.98507710157039
C        16.63070718231273   13.38349858745868   -6.06458510170361
H        17.34827085849209   14.13950088445224   -6.38996372287336
H        17.13624052443376   12.72200758552481   -5.35700371560286
C        15.45423918318769   14.06496288575452   -5.37242806492591
H        15.81192721403210   14.65399574558676   -4.52325357481948
H        14.97410933101329   14.75763024140320   -6.06898844007149
C        10.79649367599828    8.70470522814231   -2.38387185245496
H        10.25397075226443    9.64345227977295   -2.24964943250282
C        10.89454674316116    8.35612380947832   -3.86317902295663
H        11.38928008045181    9.16476619370387   -4.40943140578380
H        11.50177593345658    7.45594728872997   -3.98435520343731
C         9.49770074515073    8.12796348110120   -4.42974773893895
H         9.57367219856610    7.86968670322253   -5.48658268215275
H         8.92164843354310    9.05246094881855   -4.34923341709306
C         8.79013621912546    7.01259976122074   -3.66672308883497
H         9.33649831582001    6.07666961294987   -3.80386138825816
H         7.78145285377314    6.87320899049867   -4.05955107418671
C         8.72288578328348    7.34515329128310   -2.17935366191712
H         8.12447496342671    8.24814802978573   -2.03583267398558
H         8.24137614584639    6.53218996832939   -1.63231834256697
C        10.12537379612133    7.57531803377904   -1.61779409497440
H        10.72005289237067    6.66522369181415   -1.72799558520100
H        10.06162592595084    7.80875595426407   -0.55147673999670

