33
CSD_code = GEZJAY | q = 0 | S = 0 | Stoichiometry = C12H16ClNO2Ru | MND = 9
Ru        1.13177482635028    3.87253663511557   20.63543854388179
Cl        0.55192262690151    2.66185410581292   22.54867281064486
O         2.48426468732347    2.35524096791136   20.18861486432500
O         4.63768748703351    1.83734319558467   20.11639075689038
N         2.79485365592226    4.33859308140902   21.84097406953684
C         0.14469893732437    3.63224417897196   18.61038280201323
H         0.18941253377125    2.81007862860252   17.90552978298809
C        -0.87081662041553    3.67639848803792   19.57322528842843
H        -1.62060436048214    2.89559856888966   19.61523869008733
C        -0.95049627768198    4.78103970377692   20.46565674331723
H        -1.76495742245991    4.83568414255211   21.17953955392223
C        -0.02756276794589    5.83292096194234   20.37136530484309
H        -0.14003144766023    6.71623103682415   20.98998286624501
C         1.00935427827171    5.77346385561175   19.39744988993219
H         1.68175550977130    6.61653059829649   19.28119910242647
C         1.08680470756970    4.68967668197320   18.51016188267571
H         1.82986670424490    4.67737762249807   17.72261031433606
C         3.71882108166159    2.56747507955003   20.41228237527113
C         4.00478625266197    3.94721455456889   21.11045925330113
C         2.93660599964873    5.66555445739192   22.43688409654539
H         2.00652583624944    5.91142215823577   22.95901890734173
H         3.10510289586582    6.39485996824666   21.63782148499685
C         4.11398841188976    5.68462215978325   23.41588218538700
H         3.90113255126003    4.99852827988038   24.23822927877414
H         4.22383290588368    6.68662424645756   23.83247496105170
C         5.40028327310063    5.25580819109657   22.71110964867790
H         5.66609748903418    5.99536744897462   21.95233282339040
H         6.21805184519666    5.20787906417349   23.43093627145396
C         5.20362799979451    3.89362193486640   22.05052320708768
H         6.08427516391113    3.59436633097349   21.48305890460662
H         5.02334809647548    3.12841349069267   22.80911749218520
H         2.68356015938361    3.66859511911805   22.62434442608212
H         4.18173298014419    4.68463506217969   20.31359141735328

