27
CSD_code = GEZKAZ | q = 0 | S = 0 | Stoichiometry = C6H14Cl2N4Ru | MND = 6
Ru       -0.20520067445819    4.49816933145580    7.13329018507576
Cl       -1.77296256173802    6.27034458945856    7.51042187619444
Cl        1.31316235806779    2.71199077163995    6.79167357115631
N        -0.07837798091304    4.77399755829345    4.98087456261024
H        -0.97870905131018    4.65635324572000    4.51953645019819
H         0.54551510272983    4.01061654072365    4.70368602680224
H         0.31610092840439    5.65870912841978    4.66803154387019
N         1.57733189851610    5.71789163304305    7.38752138762537
H         2.32484382808659    5.03054291251922    7.25398832730416
H         1.65135612377343    6.11329649466092    8.32316661631095
H         1.69586600360218    6.47771299583755    6.72052814893197
N        -0.51445195387677    4.09679888214435    9.24860158341130
H         0.21402695134963    4.19111846377584    9.95628062587982
H        -1.22019195658290    4.83503943294965    9.39252977593326
N        -1.98468769387552    3.25014033686618    7.09751230227100
H        -2.65377505727142    4.00867325490823    7.29869353410825
H        -2.29867435449720    2.74019170408451    6.27179232072678
C        -1.08856704361434    2.79256976737881    9.30203609417618
C        -1.84046165432977    2.35950260717711    8.20206248807506
C        -2.35460692250602    1.07426059514461    8.18749123046991
H        -2.91041923207608    0.73084775885922    7.32615615195093
C        -2.12862051941168    0.21778983240963    9.25454006800783
H        -2.52292188289240   -0.78616127219687    9.22693086296110
C        -1.38724495918671    0.64475661822612   10.33914570994789
H        -1.19805734616944   -0.02317727727916   11.16511786608387
C        -0.86794145238255    1.93043983283107   10.36250361393611
H        -0.26393089743842    2.25508426094963   11.19828707598062

