51
CSD_code = GEZLEE | q = 0 | S = 0 | Stoichiometry = C24H20N4O2Zn | MND = 5
Zn       -0.18513230863555    0.23360152790693    8.36556306445063
O         0.29667882515277    1.50219900297566   10.44832911360292
O         1.91252526588597   -0.63581766478365    9.39262960624917
N         1.39797161322965    1.13136625191986    7.47359167123286
N        -1.22363126913820   -0.60632131695871    9.88907897235575
N        -1.20718490543068    1.75105157794399    7.61976132220690
C         2.68429096541252    0.65757807356346    7.52174116810699
C        -1.06374965635699    3.61659404557042    6.32714922185362
H        -0.65538393803011    4.39059211365352    5.70533200796971
C         2.95204880515225   -0.26919300997594    8.54779529079926
C        -0.82487279462624    1.82646024560138   12.56005041951823
H        -0.19609846747589    2.68140930018422   12.76236500002062
C        -0.65566924253398    1.11875406657994   11.38377174361455
N        -0.52033236842913   -1.48868850474435    7.45658418907323
C         1.63566170516945    1.29808570497714   10.84714678032855
H         1.79437153711216    1.63379038081041   11.87946822197532
H         2.24356883584469    1.90330823308974   10.16887787902949
C         1.00095397576479    2.18888439228713    6.82260766393073
H         1.69101195411569    2.82121352898316    6.26403001448967
C        -2.37128261311754    3.46547884740561    6.73804698653264
H        -3.20481294366125    4.10138432188544    6.50816759889232
C        -1.27905194339130   -2.28148973167590    8.28818376747382
C         5.22400030426588   -0.47692450315715    7.80640921351184
H         6.20313734347192   -0.91756980644632    7.91328856368090
C        -0.34798186962147    2.53693722386812    6.88471051981562
C        -1.63229192953870   -1.79627203432142    9.54680264855810
H        -2.20821870552409   -2.42970066427716   10.22131289284261
C         4.97170290635024    0.42671637391821    6.78739984599434
H         5.75845871464472    0.69138122932437    6.09661306677165
C        -2.46196185073171   -0.34745300426526   12.00974921931912
H        -3.11748742036506   -1.17765507444420   11.79488855822580
C        -2.62028096453002    0.36427941920123   13.18248643482475
H        -3.39062792931659    0.07511188889066   13.88189393494876
C         4.21065294949178   -0.82607465374898    8.68477859364250
H         4.39253982516468   -1.54333525139776    9.47199494403454
C         2.03792946014824   -0.17796010786322   10.72238754345000
H         3.06359174795274   -0.30956353354743   11.08862071076968
H         1.35663100832232   -0.79443990920999   11.31582985806808
C        -1.80567419957664    1.44878151465622   13.46324593351095
H        -1.93743125759268    2.00635976247683   14.37759846912007
C        -2.40624233203288    2.30784902422453    7.53017750212751
H        -3.25764952217382    1.87828652647399    8.02789220920668
C        -1.53782317468872   -3.51304529992649    7.65147699861755
H        -2.10633120267717   -4.32727005955972    8.05928269914509
C         3.71822279001154    0.98724681579307    6.64049110990699
H         3.53060022848489    1.67414272224666    5.82925981303608
C        -0.31068193530483   -2.18585099155411    6.34953274768386
H         0.26671486095706   -1.78015403350251    5.53761682794542
C        -1.47204356567291    0.00940679223216   11.08936145074592
C        -0.92273642640622   -3.44659828144515    6.41920718821765
H        -0.90449888552419   -4.20267347183670    5.65761879857329

