55
CSD_code = GEZNIK | q = 0 | S = 0 | Stoichiometry = C25H22N2O3PReS | MND = 6
Re        3.99302156554176   15.14065285032940    3.32109717465396
S         3.64176344139297   15.53297011687404    5.84333999949442
P         6.06863651768944   14.22967998773673    4.23651578725821
O         1.16397915580812   16.31263873858671    2.90525116414868
O         5.29324102223898   17.75951699947136    2.30017693415822
O         4.19017070661539   13.64008811330161    0.61877474957522
N         3.00775815130720   13.50496388790124    4.40451938970939
C         1.23544370326210   11.95353294546326    5.09401856133071
H         0.45065311983585   12.70285119335123    4.96496819386176
H         0.81196244530721   10.96740020168791    4.90736902067124
C         7.32612242248096   13.65333543106563    3.04200168326079
C         4.83098287441888   16.77295692907601    2.66831522459521
C         2.21800782825546   15.88177170786254    3.00063050416193
C         2.96670348982992   13.96419265859385    5.61981249389457
C         4.12257303822065   14.23375330090391    1.60142935310996
C         6.79733884069410   16.68325959426187    5.37364952286923
H         5.89779231312173   17.07437474166725    4.91760794512986
C         5.61080746565689   11.54695572398021    4.75127056240474
H         5.64163259061093   11.44513929046678    3.67320572388014
C         5.84048453751399   12.79521101204655    5.32553608908589
C         8.26638413865606   14.83730841894936    5.84026405197485
H         8.52202264530994   13.79214031231068    5.73415165846333
C         8.19917253822859   12.59802320652909    3.28311439672460
H         8.12347920788082   12.01820875134067    4.19308975473088
N         2.44148610505686   13.31385324659154    6.67611876794636
H         2.44370658342858   13.77972104479482    7.56760219139310
C         7.61541721086988   17.51783040367483    6.11478875310364
H         7.35857785303090   18.56112818168491    6.22126639850909
C         7.11580923308468   15.33876446744973    5.23590159399165
C         7.43728275578603   14.37586114017713    1.85742313187449
H         6.74817665073777   15.19197850412471    1.67058823944253
C         8.40497644342950   14.04773711897320    0.92671698224055
H         8.48161629413410   14.61232284557578    0.00971615124415
C         9.26892622577306   12.99236926155773    1.16957683516333
H        10.02242254512135   12.73004225806934    0.44191727043620
C         2.36928409229372   12.23955223751701    4.11007794692499
H         3.11297515284088   11.43233330209923    4.15560502195769
H         1.98791191591439   12.28634009368786    3.08529595564187
C         9.16234876578700   12.26952676986265    2.34590808383484
H         9.83275018997722   11.44379959950916    2.53632017660805
C         5.76679994399930   12.94405775038723    6.70663774681743
H         5.91812425161825   13.91868842390349    7.15128509080598
C         5.34422658630120   10.45374219605469    5.55478136578975
H         5.17452028865713    9.48444950764021    5.10748637131025
C         5.48903088239315   11.84830658304934    7.50421648768608
H         5.43047363561337   11.96661629374661    8.57668164589167
C         5.28237277130235   10.60366557622725    6.93177682511746
H         5.06869652183666    9.74956342717086    7.55819587810802
C         8.75492164484023   17.01552506688040    6.71850134490202
H         9.39241930240358   17.66622328164824    7.29874791492323
C         1.78069611212349   12.03876587778047    6.51752585331150
H         0.97280100033938   11.96078492350328    7.25001960031432
H         2.49348905210763   11.22127863434855    6.69887629349490
C         9.07839013519031   15.67432699520836    6.58030994615205
H         9.96743609412654   15.28041887334424    7.05132419590578

