48
CSD_code = GEZQUA | q = 0 | S = 0 | Stoichiometry = C19H25ClIrNO | MND = 8
Ir        5.05738822293238    5.01839969822960    6.92794992669467
Cl        6.83113705970503    4.57719445884203    5.46381116222388
O         7.66856385552272    8.09130534605127    8.13203488438512
C         2.88101371522268    4.49598967787808    7.00487614357397
C         6.71371539172522    7.30316223203124    7.64740174563036
C         4.45344283036752    2.78294812936343    7.13547080861365
C         4.35104039486056    3.35205712482673    8.40421482670033
N         6.43167636171808    6.10295243612510    8.04134970847667
H         7.02986172791474    5.70085254609330    8.75696111483994
C         1.68833501982331    5.29542110050237    6.58221695052758
H         1.78281017577873    6.33882149249469    6.87684887005408
H         0.79344870705715    4.88700928347515    7.05513731071294
H         1.55191480529861    5.25450171881251    5.50538905834861
C         5.88276616869509    7.80744085318683    6.57274690205743
C         4.98766834786555    6.84497015759780    6.05592932775429
C         4.19150047343056    7.23752994103153    4.98489596086963
H         3.51540499971642    6.53096816932618    4.52764933533987
C         4.25939601802297    8.52419776209206    4.47813156577593
H         3.62409394976578    8.80426544634907    3.64954430498154
C         5.14038093242248    9.45758156847751    5.01068239515746
H         5.18630521663726   10.45423090935041    4.59745543260754
C         5.96420046611514    9.09926537367208    6.05551022567372
H         6.67424518213256    9.79476458916628    6.47680689005936
C         3.60300120512310    3.53871782435974    6.22839161376096
C         3.42373355084786    4.46442274797713    8.32495390582051
C         2.86214349048333    5.20022682958004    9.50022206106891
H         3.61841418910078    5.36063115449016   10.26589146246154
H         2.04815283398341    4.62423895682616    9.94586297935503
H         2.46864944999195    6.16783789168754    9.19730973857870
C         9.59278057133136    8.66475497514387    9.40203625338392
H        10.13205372973918    8.91377912715165    8.49274355038014
H        10.29737687592903    8.31413528589432   10.15050215199565
H         9.09752217320847    9.55956925919499    9.76858385375630
C         8.56589938527484    7.58267121782481    9.11361442050335
H         8.01135981177426    7.32979831153394   10.02789725619066
H         9.05908099998358    6.68051265589838    8.72912794212200
C         4.98760623365076    2.86384157816144    9.66685056824365
H         5.92467952910602    2.35050303492915    9.46129587099195
H         4.32075379759266    2.16614740252839   10.17794425511040
H         5.19045604586454    3.68942074298795   10.34696589110664
C         3.29314518232118    3.09250125187854    4.83279738137963
H         2.78948911233216    3.87493051041849    4.27059632515877
H         2.64675596391369    2.21253367610548    4.85564621761763
H         4.20926337419087    2.83119328322580    4.30759151730891
C         5.23543974349021    1.57965700048748    6.72358377210918
H         4.56879858629321    0.82887203938874    6.29778152953733
H         5.75812146754200    1.14118567878104    7.56996995492057
H         5.97061267420253    1.84878754856546    5.96472467607426

