48
CSD_code = GEZSAF | q = 1 | S = 0 | Stoichiometry = C19H22CoN4O2(1+) | MND = 6
Co        3.59412864454947    0.24014808316714    6.02612107028229
O         3.85488388036632    0.69624278813807    4.23281673272357
O         4.70155683973057    2.08904821475745    2.77064969709079
N         2.64081956719022    1.91457269757477    6.37108232954734
N         3.05495471900079   -0.26632219121546    7.84320042628819
N         5.48119463820198    1.18331477792205    6.35310014455090
N         4.71143107780102   -1.28056181994654    5.60184191422987
C         3.93792650736800    1.85360260630498    3.68266086840570
C         3.02753815563798    2.99364507333925    4.20668198454569
C         1.98215120328945    2.55700646079811    5.22205312877396
C         1.79253102452163    1.79389397981846    7.56397533057644
C         6.33526239850350    0.47321024346585    5.58952995001090
C         5.86181113186446    2.38271016375216    6.75182348185123
C         7.07294932315327    2.97133196580654    6.38851416514454
C         7.93676249610294    2.27262383294080    5.57940477253769
C         7.58845170880885    0.97479143885095    5.17556607339089
C         8.43948977045035    0.15830119912072    4.37779769606377
C         1.91838614869948   -0.73640644218485    5.87443894038006
C         1.97855496537362   -1.15609275286362    7.33046083083213
C         2.53367624198796    0.90367793738687    8.56096277138957
C         5.93441156121671   -0.84717298109465    5.21371198958766
C         4.39671485408795   -2.53650052200561    5.33485269118511
C         5.22932957461487   -3.41090848740244    4.63599232247072
C         6.44069017779631   -2.96208058761735    4.17039622487740
C         6.83003220591442   -1.64833492131848    4.47222169827125
C         8.07817614615403   -1.10429073846683    4.05031106345651
H         3.40010064432744    2.55153101303032    6.62120575152847
H         3.67412545571888   -0.77702357797934    8.46903513642613
H         2.54098823499722    3.43091636779467    3.33471770309448
H         3.68226589069121    3.76318187865881    4.62564629912245
H         1.41263460023289    3.43098522751849    5.56402649455855
H         1.29006576415006    1.85179943226565    4.75930224856435
H         0.84041342189199    1.34339596625603    7.28126122887927
H         1.58130251411815    2.77451960628339    8.00571209765427
H         5.19447065880258    2.92393934018885    7.41289984263266
H         7.31096712974279    3.96266137081798    6.73892151717043
H         8.87481325926696    2.70071324689473    5.26115874740290
H         9.38074836900435    0.57103898258384    4.04940584794051
H         1.05225654435149   -0.12100520357515    5.64663432970457
H         1.93746219890122   -1.55637245319545    5.16403064860970
H         2.28297258841707   -2.19595713757856    7.45540117051985
H         1.04810429912723   -1.00927101832018    7.88843136789011
H         3.37678666035605    1.44862214091288    8.99401601048005
H         1.86262616412180    0.60223734754335    9.37451449274292
H         3.43932951415224   -2.89991809476126    5.67352162904657
H         4.89702350958973   -4.41942201652974    4.45001796389259
H         7.09108110666006   -3.59671975844819    3.58847971172699
H         8.72704650899412   -1.72980267939075    3.45689146194537

