83
CSD_code = GEZYER | q = 0 | S = 0 | Stoichiometry = C22H52N8Zr | MND = 6
Zr       -5.85467051034658    7.02166230071610   11.83308193376268
N        -4.98716171903537    8.65781974716382   13.18027542122939
N        -6.11765060071645    9.18999103546967   15.29942180960531
N        -6.93498259589082    7.69588545129055   13.64485211700163
N        -4.51534677922650    5.62005269815194   12.55863403599722
C        -3.87347776835109    9.56367865049726   13.34177091379210
H        -4.03147885966974   10.28840281047597   14.15555103846806
C        -3.71190908883651   10.34188824208437   12.03140201933121
H        -3.61016095677458    9.62349982337489   11.21859942438068
H        -2.83712885733522   10.98934393478340   12.06760210783227
H        -4.59428201889596   10.95275549579643   11.84722096461758
C        -2.60077379266260    8.75392234950359   13.62549629095391
H        -2.62434198269254    8.33827985511250   14.63037177422876
H        -1.71546547417210    9.37976670693161   13.53023929667918
H        -2.55135995414079    7.93181471374839   12.91131332844597
C        -5.97942828093638    8.52865720824976   14.02883284032465
C        -5.08573944580721    8.99125009866003   16.29026553535794
H        -4.65844744709155    7.99736432738817   16.17213425493268
H        -5.54568511646184    9.05683300080549   17.28175990175822
H        -4.27346669816443    9.73147334440632   16.24732509152028
C        -6.64551393052467   10.53431037212086   15.26816333362118
H        -7.43355462374139   10.59326182280050   14.52074820426080
H        -5.88736025086617   11.29866952907906   15.03628828895411
H        -7.06984989560190   10.76478434885975   16.24935385444224
C        -8.03440566605553    7.35002651972905   14.52761319400506
H        -8.27618556278417    8.18908238715804   15.19874380367975
C        -7.64367625750280    6.14601049417348   15.39618893710114
H        -7.32513852878016    5.32591486776842   14.75380908238438
H        -8.48395881859862    5.82103673636981   16.00640041103128
H        -6.81960963603985    6.41582618852881   16.05244050326906
C        -9.24931302689973    7.01813273204022   13.65624229299131
H        -9.69478296367507    7.92869749716813   13.26003332632653
H       -10.00536471487026    6.48798510921530   14.23166981952061
H        -8.91226795096125    6.39827561482584   12.82248024068838
C        -4.19942609634075    4.36290757088075   11.91374751190093
H        -3.11009626073486    4.15250884372290   11.94568742614937
H        -4.51855281784407    4.38311224060290   10.86818527930948
H        -4.69240808414821    3.50386534851775   12.41212862280474
C        -4.20047117868158    5.50772169972857   13.96401729484983
H        -4.74621096699129    4.67123851451242   14.45137245833131
H        -4.45508152916577    6.43200363550349   14.48658772569671
H        -3.12063951613393    5.30614245726205   14.12181572519663
N        -6.72231379873279    8.65772298308418   10.48584361277395
N        -5.59181235864983    9.18998766247111    8.36673955403905
N        -4.77437679427938    7.69597754578817   10.02133798768478
N        -7.19390432593770    5.61996562204049   11.10755687784296
C        -7.83595080137183    9.56365035782517   10.32439981389437
H        -7.67791064531089   10.28839665801485    9.51064892770466
C        -7.99743011377630   10.34183061662709   11.63479766783878
H        -8.09924888899015    9.62342242804534   12.44757256462553
H        -8.87214753652462   10.98937190506029   11.59862342587971
H        -7.11499408848536   10.95260134630544   11.81900158140288
C        -9.10871388428446    8.75399673830570   10.04065232362319
H        -9.08518135657228    8.33836553858313    9.03577075756492
H        -9.99397387275099    9.37990697667717   10.13592386814542
H        -9.15819050444554    7.93188496750318   10.75482202132467
C        -5.72999699661886    8.52866589774169    9.63732715936183
C        -6.62377599571785    8.99133110743871    7.37593446472396
H        -7.05119907857843    7.99751050320985    7.49413261800418
H        -6.16385000651232    9.05679654502479    6.38442220899828
H        -7.43594708493374    9.73166566149056    7.41885174045445
C        -5.06379606555815   10.53424840485113    8.39794880488328
H        -4.27570449454757   10.59312214913187    9.14531564686198
H        -5.82185803353571   11.29868423664464    8.62986813205196
H        -4.63949885078574   10.76466932842857    7.41672920565462
C        -3.67501131253612    7.35007327664196    9.13852064802695
H        -3.43322863714538    8.18911201452417    8.46736899447169
C        -4.06583090466805    6.14606198212212    8.26997742850182
H        -4.38442368134928    5.32600478275782    8.91238152148982
H        -3.22558483402106    5.82101197337003    7.65975464881623
H        -4.88989047393877    6.41592817666999    7.61373803987816
C        -2.46007095945903    7.01814276173540   10.00982894094171
H        -2.01457847596885    7.92869663607514   10.40603719397241
H        -1.70404904255737    6.48800542905944    9.43435276057239
H        -2.79707677866249    6.39826960296184   10.84359386388373
C        -7.50978271217778    4.36283102901035   11.75248106642914
H        -8.59911654073932    4.15243913959207   11.72063570111548
H        -7.19056795466982    4.38304755801275   12.79801620271730
H        -7.01684740419853    3.50378138087874   11.25406533081843
C        -7.50895393782660    5.50765585293954    9.70221208748252
H        -6.96328772770264    4.67116710157256    9.21478530532766
H        -7.25438759343582    6.43193846241411    9.17962105225308
H        -8.58880922789098    5.30610133417906    9.54454081122816

