79
CSD_code = GIBBEA | q = 0 | S = 0 | Stoichiometry = C36H36N2NiO4 | MND = 4
Ni       -0.00009742530606   -0.00009401898114    0.00003406345902
O        -0.42973543153908   -1.12839632152564   -1.42161641486659
N         1.31072907021483   -1.27387460833258    0.60729833951883
C         1.71453250325077   -1.17779652252149    1.96098915965215
C         0.28966671203853   -2.00126204761434   -2.01010963138583
C         1.48052644335491   -2.55292584960782   -1.43926367893761
O        -1.68196419553515   -2.27705478882492   -5.04153148893457
C         1.84380563313159   -2.20623111926640   -0.10809141837677
H         2.60767268502914   -2.83549080758627    0.35338860179772
C         2.24087237340077   -3.49410565707804   -2.14483704516561
H         3.13182019373989   -3.88772625465168   -1.67352592524136
C         1.89517667754386   -3.91676634009514   -3.41158011016779
C         0.76146958550869   -1.42965736094914    2.95599140822898
C         3.02547731725039   -0.83290506327865    2.30186379879037
C         0.72425703480093   -3.40662236649913   -3.96777209871638
H         0.40329326936708   -3.72704056019198   -4.94927153557538
C         2.44055736744234   -1.01722596934154    4.64832010734162
C        -0.08158076369824   -2.49811984780541   -3.30142477369273
C         4.03744746058006   -0.48162824453960    1.24995970659918
H         4.77836357127754    0.20076779707332    1.65999204679604
H         3.55565574513799   -0.00480366585171    0.39752237991559
H         4.56235611672466   -1.36880097118012    0.89398525071004
C         1.14099903234721   -1.34383986561700    4.28424980256380
H         0.40467617760317   -1.52585705280286    5.05393706520825
C         3.36628766986273   -0.76895056931671    3.64512750840265
H         4.37526122049589   -0.49136517310285    3.91484405657368
C        -1.32747112227621   -2.04848877018913   -3.90613602462364
H        -1.96408373625068   -1.47175628671709   -3.21529254655943
C         2.72862559382313   -4.90290357853156   -4.17245707270897
H         3.57944818984062   -5.23173646675199   -3.58124793514287
H         2.13372219299503   -5.77402285714325   -4.44262104922022
H         3.09796680631683   -4.45477927772437   -5.09397615927216
C        -0.64261373671984   -1.79372533697168    2.57326933546704
H        -0.98717631447323   -1.17573792119162    1.72389002389502
H        -1.32034817457422   -1.64500859194305    3.41009416303231
H        -0.69557894715170   -2.83828490767430    2.26216984848108
C         2.81571598263916   -0.85899870932636    6.08700267440018
H         2.19816606138130   -1.48596580402888    6.72558816842520
H         2.65948597686276    0.18115195585769    6.37563140700854
H         3.86290977412787   -1.10308134862566    6.24947152133197
O         0.42981921736378    1.12837865487122    1.42147554024691
N        -1.31082929572707    1.27375311076487   -0.60724890040623
C        -1.71477294092797    1.17763726992279   -1.96090165470717
C        -0.28945651925342    2.00134159531272    2.00998148399752
C        -1.48042667150345    2.55291111624939    1.43925933877417
O         1.68294828136223    2.27781311310031    5.04084618822179
C        -1.84385414848742    2.20612086456203    0.10815811383489
H        -2.60787029780651    2.83526318907186   -0.35323133380296
C        -2.24069698488659    3.49413454360612    2.14484471524781
H        -3.13174558723640    3.88766784565598    1.67364770373553
C        -1.89480763230102    3.91693201002760    3.41149115603995
C        -0.76181864958488    1.42959438004376   -2.95599550853059
C        -3.02572409515391    0.83265762887621   -2.30164732494864
C        -0.72377971799341    3.40689187693225    3.96754326313730
H        -0.40257414764521    3.72755330715532    4.94888627323782
C        -2.44107870518443    1.01714318971930   -4.64816086058048
C         0.08208601884961    2.49850355850335    3.30109504957368
C        -4.03749225184782    0.48110346034493   -1.24965189465000
H        -4.77853163262735   -0.20112924879706   -1.65972528031583
H        -3.55549431562829    0.00399062344156   -0.39749726414862
H        -4.56225785816303    1.36818006923926   -0.89325153282631
C        -1.14147493413052    1.34375018254584   -4.28420303299058
H        -0.40527672936100    1.52592555876314   -5.05397955817942
C        -3.36669125593132    0.76880882134605   -3.64487940513026
H        -4.37564363972215    0.49102393931336   -3.91447386275290
C         1.32855314442748    2.04965456574542    3.90531094296080
H         1.96403452149470    1.47112894840135    3.21497362911159
C        -2.72813787633934    4.90316996490878    4.17236710913786
H        -3.57900797950990    5.23199056556101    3.58121721239972
H        -2.13317401036136    5.77428808009286    4.44240732297006
H        -3.09740800776742    4.45512872682212    5.09395495283176
C         0.64226497533611    1.79378705517944   -2.57338795344509
H         0.98698857557923    1.17571388089713   -1.72413553549018
H         1.31993792188938    1.64526361636818   -3.41029560261005
H         0.69513810303977    2.83830400360395   -2.26213265425265
C        -2.81623591635698    0.85891389488612   -6.08695402511984
H        -2.19998303184682    1.48796238188943   -6.72511153903241
H        -2.65756586374813   -0.18097261848225   -6.37587581719476
H        -3.86425465287681    1.10082742397611   -6.24858498334054

