94
CSD_code = GIBBIC | q = 0 | S = 0 | Stoichiometry = C52H35ClFeN4O | MND = 5
Fe        2.71820624602555   13.33261115012092    6.12725158086099
Cl        0.98733312541299   12.76027695239943    5.06712448270576
N         1.77999121266840   13.07161737994176    8.18837470758845
N         3.43173515228973   11.51809428066668    6.28838023524536
N         3.74479296075621   13.64389354327257    4.48501718177179
N         2.21238538644872   15.22176395798013    6.24101110009409
O         2.43960851115520   12.67728037391742   10.81410836026221
C         1.39291569626404   11.75784572565114    8.48839739396627
C         2.21763035901618   10.64703605806500    8.26497878134615
C         3.23550396875165   10.62022854258175    7.31354378089508
C         4.14433744080596    9.51317668552540    7.16769544427199
C         4.81273813858014    9.70019093725962    6.00906711622024
C         4.32821745991342   10.92944958405137    5.44231306228655
C         4.71120858451857   11.41916989311993    4.19931969984178
C         4.36179498609591   12.69085579229655    3.73583804330319
C         4.67674724010912   13.21126794866062    2.43911174378858
C         4.26504433973740   14.50388788039560    2.42832553630628
C         3.69861649922458   14.76551817555908    3.71791825243779
C         3.23285431307490   16.00939959916960    4.15381077890920
C         2.60883268451379   16.20607024857110    5.38002498621608
C         2.24955564586872   17.49704471842844    5.90066462062419
C         1.55747935002395   17.28042928235304    7.04029895268700
C         1.48296692153737   15.85475317357144    7.22349346898578
C         0.65718383551740   15.25639423490699    8.17707060837516
C         0.66663338665185   13.88353161578969    8.45345543270532
C        -0.38312775715772   13.07582220251229    8.89732834869196
C         0.06226226143554   11.76932536604944    8.91608188405603
C         1.87726929416008    9.41915424576295    9.00102797045323
C         1.66866188389064    9.47689811591391   10.37841287492973
C         1.33985917702667    8.33465132318624   11.08377183644209
C         1.20135682981005    7.12364939313825   10.42513491104644
C         1.38853448969802    7.06147826624419    9.05385602213333
C         1.72442966551792    8.19930233149413    8.34461751245058
C         5.53134815959923   10.55390342750955    3.33132474392395
C         5.06176701144381    9.30156086936919    2.94448102298672
C         5.82587684087411    8.48903002680298    2.12721651752176
C         7.07139436210451    8.91133531277569    1.69272952257075
C         7.54799693064631   10.15391972716671    2.07627961232753
C         6.78267344071525   10.97229285376760    2.88670990247531
C         3.40502101948671   17.17230266984886    3.26319622429978
C         2.29797183709562   17.90266108725886    2.83945351331640
C         2.45576593693485   18.98849736942487    1.99803634018771
C         3.71992696702070   19.36400224272862    1.57450203126767
C         4.82699097428915   18.64542332878073    1.99434884048289
C         4.67179054208705   17.55475074557340    2.83016483703404
C        -0.36279156325517   16.05827637808272    8.86975858256950
C        -0.51923606690852   15.93076530681103   10.24950003223686
C        -2.30647122243618   17.53016861730120   10.21647740382276
C        -1.48047543307303   16.66614360884106   10.91668578678201
C        -2.16908627612016   17.65096337713719    8.84320486488867
C        -1.20520916248030   16.92194322470091    8.17253970093679
C         3.07346946236354   13.54003392668555    8.67300402336088
C         3.31175978531783   13.17716773051272   10.14035185285191
C         4.65195497409578   13.48621375376076   10.67810145980362
C         5.62294518969085   14.20902981355509    9.98161963046307
C         6.85010671078911   14.45914907168720   10.56633008389192
C         7.13035413589178   13.99366450854620   11.84196081514264
C         6.17339084268226   13.27595235062861   12.54177959200517
C         4.94425396949915   13.02713099594328   11.96532711145677
H         4.25509027430543    8.71796397354468    7.87873809622311
H         5.57641062353241    9.08500914382714    5.57491712767780
H         5.13422113755264   12.65558733113276    1.64411138466658
H         4.31999105674386   15.20933071036739    1.62250159207631
H         2.51338480841739   18.43445528427976    5.45160209326981
H         1.14651487430828   18.00437290466462    7.71670407827307
H        -1.37406431447507   13.42298859333782    9.11505001988347
H        -0.51196819906642   10.89560381899431    9.15336123332065
H         1.77899068006305   10.42164247846112   10.88976959778617
H         1.18876715654873    8.38865141970812   12.15205786104701
H         0.94131291400687    6.23241422491593   10.97712732687912
H         1.26643739417085    6.12248101109697    8.53388349233168
H         1.84514996781688    8.15665348922907    7.27241278385531
H         4.08571125333933    8.98002451228636    3.27656649989173
H         5.44811447377949    7.52256156482356    1.82713728360233
H         7.66878330238024    8.27477616722687    1.05685799379909
H         8.52012414992162   10.48685079685886    1.74239062305608
H         7.15737472865051   11.93860916350784    3.19237578725686
H         1.31287221794160   17.59946612148310    3.16185362890087
H         1.58903172341929   19.54335747207475    1.66986578830416
H         3.84212555056511   20.21305299872663    0.91835040964936
H         5.81538661823924   18.93554636923858    1.66847541550685
H         5.53571009211937   16.99796466828212    3.16371091576070
H         0.12627066871346   15.25843446424978   10.79670540641536
H        -3.05909191753900   18.10239189743015   10.73830560437369
H        -1.58669341678358   16.56461768828826   11.98686352696740
H        -2.82091038254130   18.31230107186249    8.29144008743097
H        -1.11424892202711   16.99600744130964    7.09925815259322
H         3.89784929569185   13.12913153683696    8.06300173812295
H         3.09877148673840   14.63392470959024    8.60266968419531
H         5.43063045001069   14.59054863493839    8.99067327110840
H         7.59458688588829   15.02193150946953   10.02329442081717
H         8.09264549766642   14.19345327904916   12.28849407847207
H         6.38678104781072   12.91413593323365   13.53549379264978
H         4.18438816439596   12.47230631191589   12.49476844332374

