53
CSD_code = GIBDUS | q = 0 | S = 0 | Stoichiometry = C18H22MnN7O5 | MND = 6
Mn        7.74350494994949    4.00893880340224    3.70464883760844
O         9.06886650261619    3.37002289449658    2.52516649259089
O        13.61249080478332    7.30397009789411    1.92330934215513
H        14.01078191778294    8.09282057849339    2.30467934668197
O         6.44720395624969    2.91318992064937    2.95150609073539
O         3.26452958319121    3.71891869350967    7.09958706508095
H         3.60381085208764    2.87632792618836    7.42085960915528
O         7.14184601223448    5.36464139853170    1.83320647175723
H         6.52586049695712    4.78420492605328    1.36779626628228
H         7.94279105974627    5.38912540442125    1.29622414230307
N         8.84277492324322    5.41816056069111    4.26491348190490
N        12.02141436390561    3.84562565207923    0.62722905760731
N         6.39780427163722    4.83656717218701    4.74791451320023
N         3.46914364910842    1.00092054365568    3.25701133105642
N         8.34006075005887    2.86960277000281    5.03177867594149
N         8.72441473358664    1.75938017518449    5.07008707483245
N         9.10510676041205    0.70851195603208    5.26098470405578
C        10.15022746843331    3.94248626030210    2.14014671411011
C        10.92174457036679    3.32534823993742    1.09424585333482
C        10.43591120997799    2.03482454281990    0.51971223223533
H        11.15278015367531    1.66654886800275   -0.20702001075786
H         9.46649619842788    2.17289165998709    0.04219124973429
H        10.30342541962069    1.30714907567475    1.31883559468457
C        12.48169809005442    4.99404863376227    1.13651783364423
H        13.39941483957053    5.36014488530966    0.70361832448824
C        11.86055847609762    5.68846830965676    2.14385503540663
C        12.46306821729562    6.97002609890309    2.66342923850545
H        11.71946396558084    7.78139069437444    2.58780511726143
H        12.71950738898462    6.83866295211481    3.72746432281033
C        10.64994699658248    5.17330957944941    2.68387397746488
C         9.96410293183076    5.82669108738075    3.74120171625548
H        10.42093384942069    6.72770446377654    4.14968132112582
C         8.31372843347598    6.14582562802035    5.40137848092664
H         8.69941814520210    7.17162485151089    5.44868300862198
H         8.60949042241768    5.60798934479315    6.31052553471819
C         5.29806985199359    2.54904783043287    3.41119659786424
C         4.64782274554897    1.40128083902398    2.85654505992220
C         5.36085244872466    0.59999788335584    1.81708065813597
H         4.77758504969685   -0.28177108367503    1.57208770441422
H         6.34248054009972    0.30895202429339    2.18788184639735
H         5.51315575911206    1.19908122455126    0.91995441479526
C         2.82592364515483    1.67841840519042    4.20786079486385
H         1.85422217379306    1.28258789883861    4.47219299514206
C         3.32990761072141    2.79859943322539    4.82983291560126
C         2.53690695612185    3.48850367460815    5.91180776351651
H         2.21704161726997    4.47965320694303    5.57124416534883
H         1.63477761693262    2.89785551257689    6.12386584742881
C         4.60886611739210    3.26232970430819    4.43811827315787
C         5.18077711648793    4.44850982315028    4.98344767529213
H         4.54058378123494    5.06705333169291    5.60895806287977
C         6.78933630237294    6.13071654504434    5.28135429465284
H         6.31154447112576    6.32455428115658    6.24809804984351
H         6.47472383164962    6.90616481603490    4.57032483322393

