76
CSD_code = GIBKUZ | q = 0 | S = 0 | Stoichiometry = C33H40N2Zr | MND = 10
Zr        3.35676943917626    3.63336223425256    7.04773339438473
N         2.98009330371702    4.92572655763747    8.54130210001109
N         4.57655024554975    2.61255746119379    8.25687085865115
C         3.11926685396771    4.07898730661179    4.57712907577940
C         2.91184513654574    5.33908020235886    5.09969654030333
C         3.93952420543451    6.03329169468100    5.77655156084093
C         5.11492385355781    5.32398148378199    6.06735175238771
C         5.31037842701301    4.02338674774445    5.61172396559166
C         4.53987138215750    3.57079695769850    4.37939890101091
C         4.56556174077195    2.04050592687373    4.25927178734305
C         5.15276361219190    4.17581142921370    3.09293847141156
C         0.96873951641181    3.43793376330414    8.78215651404372
C         0.87019414293213    3.46785018950875    7.26673002385373
C         1.34226893926466    2.39992721200080    6.52071647816032
C         2.31951713798385    1.49529980437603    6.99432461824262
C         2.46546328367648    1.27695384592760    8.49839833143843
C         1.33486311502627    2.00793416102137    9.28422582803313
C         1.58367172356627    1.98834520280843   10.79745521146797
C         0.06439492347259    1.15514172465755    9.06255600024110
C         1.79281359990641    4.65462976832467    9.32506486847337
C         0.85126671808751    5.85498846393665    9.30169232387493
C         0.84490847239419    6.71262088070719    8.21005852493806
C        -0.02639458402632    7.78575288096283    8.16245283829857
C        -0.90238452328438    8.01694584684566    9.21010195311889
C        -0.89849559766113    7.17068358850643   10.30593096979199
C        -0.02782251992141    6.09603464778026   10.34995389689506
C         3.95499441878168    1.49837322316857    8.94599435376733
C         4.70492685579515    0.20167158195896    8.65413580258258
C         4.54873507212138   -0.91094291593396    9.47265286521737
C         5.20889874287844   -2.09291628066270    9.18885044416760
C         6.03543139266235   -2.17871915636156    8.08083865259119
C         6.20432531592677   -1.07239725640433    7.26549022498155
C         5.54503443825402    0.10935057811276    7.55292824028269
C         4.07405987654132    5.43312525536312    9.33713690240829
C         4.90058897560381    4.34108779614197   10.05843669677012
C         5.53149387510411    3.33202118885899    9.06982835701781
H         2.35215769517797    3.62533536554030    3.95173558662339
H         1.93910895873576    5.81499135190406    4.97968266464589
H         3.79666458080683    7.04815176917875    6.12260291999322
H         5.88155952399716    5.79673703056630    6.68028002860154
H         6.27555897965139    3.54486449395054    5.77717012377716
H         3.94944447014689    1.71267016493913    3.42171046719203
H         4.19354874714652    1.57841764567507    5.18125428357729
H         5.58303819807470    1.69399326843344    4.07996018427246
H         5.13444013674433    5.26167024584942    3.15608505819006
H         4.58479351045133    3.86994765327782    2.21602564899762
H         6.18516496622099    3.85365643492723    2.97063181698232
H        -0.04450847208841    3.61559062582492    9.17626404946491
H         0.09711973035310    4.11276141818942    6.85355497506647
H         1.01237081918981    2.29952573082303    5.48294741208857
H         2.50164534445704    0.59961246190967    6.39781768833085
H         2.28768783464035    0.20880123880487    8.69732531193483
H         2.45601818928352    2.56435605174755   11.08814130838975
H         1.72688901993026    0.96338210815644   11.13494740657697
H         0.71953600723586    2.39803075510419   11.31762057100473
H        -0.18798559801437    1.09797581796465    8.00750561599614
H         0.21326309575600    0.14318583821654    9.43430706941135
H        -0.78334570821599    1.58342228761861    9.59381218284496
H         2.03877737020993    4.47272654945956   10.38429261884679
H         1.54998777562885    6.52416700448135    7.40912440287643
H        -0.02410153727030    8.44641474718670    7.30683337116691
H        -1.58266440999855    8.85546171178337    9.17542155050737
H        -1.57516263206676    7.34981267277515   11.12937583890075
H        -0.02910028662676    5.43890147436597   11.20960714202538
H         3.98535130163390    1.63231239210911   10.03904986004886
H         3.90887484261871   -0.84991063429131   10.34298351096470
H         5.08054088671003   -2.95006672833853    9.83469265842817
H         6.54948394218935   -3.10251240695742    7.85868498193409
H         6.85401483401577   -1.13214472309376    6.40371687749462
H         5.68254513286418    0.99310060710938    6.94061048077866
H         3.69675308112236    6.13497635653497   10.10279288858614
H         4.75204595611130    6.00531602891967    8.68577602886872
H         4.25564179832931    3.80380598697853   10.75829882843336
H         5.69553686811543    4.81859911404892   10.63700883562291
H         6.14770028700832    2.62329394557390    9.65263219853256
H         6.21366324821588    3.88338214591178    8.40263622362803

