51
CSD_code = GIBKAG | q = 0 | S = 0 | Stoichiometry = C26H21ClNPPt | MND = 4
Pt       13.01465075551769    4.61649769673967    3.58456669390377
Cl       11.86782592121237    2.58040214778655    3.34713942524824
P        11.28550166500685    5.62059896933281    2.54509093760909
N        14.63041348359006    3.72312752106632    4.44706424027528
C        14.11713416849250    6.28267704061904    3.89577373975391
C         8.29109142920121    7.93290137821167    4.15987706671934
C        10.08029261033495    4.60723303603378    1.61053255563152
C        17.57353216475438    6.48675885341569    5.36636361065063
C         9.92066375626100    7.48456495287278    5.86443100181594
C        13.54973642075063    6.92803644365241   -0.51497047218888
C        15.36888735671559    5.96153185587387    4.47248007328198
C         9.03154477393604    7.20020062392471    3.24914268673812
C        10.23326017101401    6.61854396826654    3.63987462045671
C         8.73552143295458    8.08029214153190    5.46397104926142
C        10.66497477553896    6.75566980019530    4.95564856339530
C        16.83842694189351    4.17861042887299    5.33449704269571
C        14.80725401551749    2.43868493361087    4.69513972722610
C        12.99870370994362    6.21397694439621    0.53074596799217
C        17.00251753373966    2.80894233840464    5.58720223573313
C        15.98156354692553    1.94385354870443    5.26465224548016
C        13.87492149991147    7.62619694824531    3.67549383623139
C        14.82958880111764    8.60142584595489    3.98089276796288
C        11.88874125976990    6.70577174557020    1.21127460126896
C        17.81235776522922    5.17706437260899    5.62672918810831
C        16.05011598589764    8.27006964914779    4.52041346562269
C        12.99786276000558    8.14658960491823   -0.88001956250305
C        15.62157055372659    4.59058147798880    4.75464388097792
C        11.34408191746431    7.92871161325077    0.84880060437402
C        11.90247478016534    8.64603080258654   -0.19615880090428
C        16.34662499629886    6.92665880078726    4.78849208250015
H        10.63386996293771    3.95261689802610    0.93810559041847
H         9.51886656708237    3.99018435844974    2.31006933109655
H         9.40792258318424    5.24174990866079    1.03365290846366
H        18.32066123977032    7.23266642144005    5.59941615254357
H        13.99278738720621    1.77378252973716    4.43566686368044
H        17.92023695910235    2.44937274629158    6.03009917156483
H        14.59700057186109    9.63919356924574    3.78497835177918
H        18.74712351870746    4.86076636563974    6.06694140479133
H        16.78052437243776    9.03357687435709    4.74697616587521
H         7.36006218398966    8.38711723847767    3.85280635963236
H        10.26024915292417    7.58643520248200    6.88441700451907
H         8.66559251319595    7.07686460163164    2.23977881537345
H         8.15152159252749    8.65214616108524    6.16991352486247
H        11.59297468473279    6.27019341138373    5.24968542630872
H        13.42710720297171    5.26689389878138    0.85430941046886
H        13.42838482872412    8.71209808562732   -1.69318994949969
H        10.50087534729622    8.33179009268290    1.39101894719213
H        11.48233577331983    9.60164143268650   -0.47467558577092
H        14.41091601334569    6.54441910275038   -1.04167661185736
H        16.07222474398737    0.88439217288456    5.44569958782889
H        12.92922584780808    7.95079344310809    3.25992205541579

