30
CSD_code = GIBQAL | q = 0 | S = 0 | Stoichiometry = C11H8ClCuN4O5 | MND = 5
Cu        2.39955201222227    4.54908013024580    7.07739536547271
Cl        3.58478837223044    2.44791305282985    5.27790346639253
N         2.56273578008138    4.38398046888517    8.85153298255089
C         4.62957227625188    5.34946878919294    8.29813473049696
O         4.23882509590409    4.92569809648939    7.13655087604054
C         3.62920124521477    4.96989108461279    9.37716275205223
N         2.32379153262720    4.71802051065237    5.25360187427868
O         5.68397582528685    5.88218066812051    8.53188484248236
O         1.33514575567400    2.67993078652688    7.43875586290101
N         2.20944980496648    5.23811548546624    1.24730426146012
H         1.75461241458514    6.07533334199864    0.92474678115405
H         2.60437694579632    4.59140316576550    0.58817271221946
C         3.81338099957741    4.94406909488738   10.75073605981501
H         4.68385856535201    5.42256423454696   11.17087196623978
O         0.02539227345231    1.99251577649863    9.11957962250701
N         1.70812266155066    5.94320056170126    3.36023548057733
C         2.87742024053952    4.27174468689949   11.52965499108555
H         2.98218533990675    4.25521686398793   12.60454225291248
O         0.79400514593998    5.42829971004515    7.26495361664734
H         0.06967457943577    4.79881695594957    7.23690604284407
C         1.85410444611620    3.56079900675263   10.91889559512002
H         1.16263394458463    2.94168361179074   11.46875938358120
C         1.73182104353529    3.62844024661977    9.53660903190043
C         0.89709479630391    2.66678000812278    8.62422392876609
C         2.88712435768871    3.77031029621368    4.48676586613222
C         2.88237719269010    3.87427542553796    3.11468891106886
H         3.33115889801400    3.11075911689325    2.50340643080103
C         2.27010511140004    5.01634180086808    2.56157815290527
C         1.75623179980004    5.75882153269171    4.64549279087182
H         1.28308154327327    6.48524548920512    5.29345336872579

