32
CSD_code = GIBQIT | q = 0 | S = 0 | Stoichiometry = C11H10CuN3O7 | MND = 6
Cu       -0.15705466671998    3.67677661895962    2.14660971208952
O        -0.96398183792948    2.81426925568689    3.67432308024965
N         0.50491035704733    4.80620661813708    3.32252586529481
C        -0.41954618057871    3.19306782718143    4.77999696876216
O        -0.58147910653773    2.67532209905159    5.85861020819344
N        -0.75100758539221    2.48596125943396    0.95228610731504
C         0.43464662745888    4.43448001222509    4.58852450939853
O        -0.05491397582212    5.47088050213897    0.91161513436600
N        -1.22298752220082    2.00809910221774   -1.28051311509420
C         0.99568214927493    5.22948860263042    5.57707209612618
H         0.92677338130970    4.90639911989468    6.60392996000253
O         1.24245925468528    7.28603952475574    0.96115895603085
C         1.61189052013362    6.41614536723241    5.20155851737195
H         2.07362903719595    7.04728249245750    5.94655820416798
O         1.61430913091580    3.22431017602663    1.55456993911675
H         1.90607668646864    3.85718086829065    0.89327322263761
C         1.59668424734281    6.80492928030327    3.86990717180458
H         2.01106730212884    7.74026103800600    3.52692780498862
O        -2.29228397217759    4.97548956101983    2.30654531939471
H        -3.04489008738889    4.48051647001341    1.97271209046121
H        -1.98529074957825    5.56454126514790    1.60270539151527
C         1.01188525390015    5.95918157732945    2.93673790421256
C         0.74717474526635    6.29851093001291    1.45429589509148
C        -0.90281258228814    2.83370077744154   -0.31960413809088
H        -0.74597398127874    3.87370268925442   -0.57208019935685
O        -1.69843442108932   -0.07120855538985   -1.99544854662977
H        -1.79328813388333   -0.99501078510579   -1.72254415690981
C        -1.39080067093207    0.72061291903849   -0.98284923968598
C        -1.24676868396520    0.26793390931846    0.33976604103954
H        -1.37871616842659   -0.76911939181462    0.60645611336087
C        -0.91782707894535    1.20938541102797    1.28759479581600
H        -0.79513128799586    0.96996345807103    2.33377838696110

