69
CSD_code = GIBYEX | q = 0 | S = 0 | Stoichiometry = C27H36ClN2OPPt | MND = 4
Pt        0.06016854121263    7.68676879677254    0.25292038169649
Cl       -0.17621252386450    6.64434555289385   -1.98447146179278
P         1.35946672983325    9.32196206848623   -0.59366708266212
C         1.64540172753354   10.84423847818928    0.36642013001460
C         1.18306890173711   12.09108088712911   -0.03554597764030
H         0.66905004667052   12.19547990056929   -0.98105129255902
C         1.38320509189966   13.19701035965728    0.77374606414729
H         1.02541688502325   14.16577071734562    0.45618942070145
C         2.03701061859455   13.06302315488474    1.98672995286388
H         2.18914054440527   13.92730610472487    2.61637016068063
C         2.49584112488637   11.81894314665515    2.39394339653183
H         3.00551982373897   11.71430201288598    3.34040715947712
C         2.29874774727441   10.71360391932956    1.58979045974213
H         2.64628603797595    9.73676665612849    1.89872063995372
C         3.05223585554047    8.72348398431492   -0.87583634504084
C         4.16521752780309    9.55911267355930   -0.84709378951969
H         4.04812866159775   10.61248083485851   -0.63017671757330
C         5.42309388406192    9.03618922560697   -1.08680487467645
H         6.28635144216255    9.68591349989150   -1.06477671987481
C         5.57878387847650    7.68498149328359   -1.35296518873179
H         6.56470395554900    7.28348071076176   -1.53651415234498
C         4.47289398629365    6.85125836418195   -1.38160534575116
H         4.59360082984737    5.79811596332955   -1.58826280893604
C         3.21258499227129    7.36805234836732   -1.14372380008359
H         2.33767665510374    6.73149326992688   -1.17633889199636
C         0.82715096550165    9.94482466299785   -2.21708898689233
C        -0.53182154313150    9.91653587911553   -2.50994910438921
H        -1.21979549695580    9.50404535898117   -1.78214108323608
C        -0.99007000623934   10.37395529127983   -3.73097411509271
H        -2.04518736581812   10.34039078922284   -3.95953468336366
C        -0.09153327144958   10.86147099951126   -4.66621484182404
H        -0.44643101961111   11.21134197019602   -5.62459993634377
C         1.26359289271369   10.88860201577406   -4.37925216080525
H         1.96397919020196   11.26008506307198   -5.11326567411135
C         1.72659359120411   10.43103631722380   -3.15844989885626
H         2.78527137156961   10.43991762428902   -2.94016296932125
C         0.21935916938378    8.33497923239698    2.14319636103480
O         0.93593495042382    7.69772726222855    2.89976299761367
N        -0.46216324989919    9.42229459546360    2.58403350804693
C        -1.31140239766646   10.23138174307315    1.74579078061688
H        -1.22672420598805    9.83605828223385    0.72259291400984
H        -0.94075516976741   11.26448908785491    1.74352140797259
C        -2.77617862497638   10.21877029948290    2.17901729910568
H        -3.13572279327207    9.19776699060945    2.26867171131874
H        -3.37996518515261   10.73767762271632    1.43893155445984
H        -2.90323242145878   10.72064721589745    3.13490117403720
C        -0.25483546788197    9.85134312071171    3.95883173635428
H        -0.51597786797123   10.90956245861412    4.03114527500434
H         0.80953344790089    9.73308582288823    4.18478747226783
C        -1.05734760940902    9.02228309943240    4.95834808265295
H        -2.12451167873943    9.09492631151809    4.76582829034150
H        -0.85938985715970    9.36908106615617    5.96946799410666
H        -0.75496091259801    7.98131165178316    4.88320599065287
N        -1.03664688929957    5.95652244917291    0.88220284815998
H        -1.07437406480499    5.55802658920699   -0.06733350137931
C        -2.40735099367078    6.14958107452761    1.34766069127038
H        -2.37576415280364    6.66786102202877    2.31308956612892
H        -2.90053562580725    5.17747336545897    1.50234581990025
C        -3.18431542611351    6.96663546396619    0.32490632132151
H        -2.62287136664753    7.87424698289646    0.08635714945414
H        -4.16329735161946    7.24376108146086    0.70747968488905
H        -3.31499769974196    6.39929841609735   -0.59413577975479
C        -0.25948090136228    5.04430390367519    1.72181133175171
H        -0.77827213053498    4.07758220554644    1.81043560671519
H        -0.16709514720231    5.48166727247002    2.72047254526617
C         1.12735324818214    4.85052560078637    1.12687195691575
H         1.05942578686883    4.45509324063727    0.11455338491501
H         1.70761143923975    4.16184552997310    1.73543684312640
H         1.64721887591034    5.81221984365502    1.10684111933568

