81
CSD_code = GIBZEY | q = 0 | S = 0 | Stoichiometry = C44H32Cl2P2Pd | MND = 4
Pd       -7.21857944880326    0.95536109830512   -5.43592472667899
C        -4.35710168011108    1.82837009316816   -2.86270556398602
C        -5.10348855399749    2.78253312004065   -3.53138439267152
C        -4.45106438131211    3.88071506380483   -4.13141180402027
H        -5.04259542815467    4.62698436639082   -4.64167230962053
C        -3.09507357446637    4.01108906932703   -4.07235926941571
H        -2.60662739580317    4.85303162518492   -4.54131984430617
C        -2.30552788753702    3.05508211453868   -3.40223343570431
C        -0.90122179327122    3.16004286290200   -3.34288688909572
H        -0.42600932512333    3.99581862107899   -3.83585096792515
C        -0.15771063429416    2.22776243854549   -2.67639945204448
H         0.91795086132036    2.31401213739739   -2.63444749327463
C        -0.78990858746293    1.15064423378216   -2.03732663834473
H        -0.19199316705494    0.42269366497177   -1.50894610051080
C        -2.14890541700354    1.01718525443678   -2.08218347483704
H        -2.62877961326598    0.18428677589126   -1.59025510305382
C        -2.94633630966340    1.96054748691776   -2.76709899511176
C        -5.01001337235590    0.67791691955997   -2.19916268545261
C        -5.45486274488224   -0.41032477330227   -2.92950059517859
C        -6.04730631047928   -1.50172195990452   -2.25849921900158
H        -6.37858994892279   -2.35373788661810   -2.83428436834931
C        -6.20218757622133   -1.49548552108328   -0.90382693866542
H        -6.66427372855228   -2.33416297522141   -0.40334885566327
C        -5.76489705287923   -0.40064053931488   -0.13155337655711
C        -5.92955932387362   -0.36463066412391    1.26777880480143
H        -6.41623413937792   -1.19975316923287    1.75057493997688
C        -5.48255415823638    0.70023350608558    1.99736219485837
H        -5.61135358087154    0.72161549448918    3.06934541446426
C        -4.84831877182832    1.77463479961867    1.35590705166278
H        -4.49384616007683    2.60848451044768    1.94378522376890
C        -4.68104798219833    1.77330137281434   -0.00010819029722
H        -4.19502260774044    2.60540904462859   -0.48717770487997
C        -5.13609647710719    0.69039542410498   -0.78433399126424
C        -7.63616123515207    2.12625761300125   -2.25634750206354
C        -8.49399732247827    1.03014359967615   -2.22689806373574
H        -8.68505361413763    0.48341796209065   -3.15571159387173
C        -9.09167417468307    0.65467899088879   -1.03866715892447
H        -9.75433212960119   -0.19737103445760   -1.01026028937541
C        -8.83915586801732    1.37676854894826    0.11715780782363
H        -9.30463230153902    1.08490396557963    1.04683178990822
C        -7.99247057921490    2.47328912898732    0.08772149001837
H        -7.80032417231152    3.03150508575382    0.99219395948286
C        -7.38323995112451    2.84896670175874   -1.09513086896427
H        -6.70275671328507    3.68929105661948   -1.12175643904680
C        -7.47455194531694    4.13651833668778   -4.38016186239301
C        -8.15397282015302    5.03524937122935   -3.57160864902323
H        -8.36131287347187    4.79160144534073   -2.53949965477003
C        -8.59055792357022    6.23742978464099   -4.10535591202265
H        -9.12852558077789    6.93493645602201   -3.48000185605621
C        -8.35340482451766    6.54028189637681   -5.43446675075386
H        -8.70505523984938    7.47523021906277   -5.84502337408741
C        -7.68445207676712    5.63697956641102   -6.24845998428501
H        -7.52015702051199    5.86527943188077   -7.29102232143566
C        -7.25136444992880    4.43589262804270   -5.72583002479842
H        -6.76433518073184    3.69247806797843   -6.36064279835061
C        -3.89304816358921    0.19132213032372   -5.32207890481750
C        -2.69822168882794   -0.32859466577462   -4.83552643247122
H        -2.71575676485534   -1.09238254033942   -4.06996913796631
C        -1.49704243795155    0.15049975642715   -5.32457111575384
H        -0.56635001480726   -0.24925840376724   -4.94972317422375
C        -1.48493376358934    1.14871574755399   -6.28566169271748
H        -0.54250444422764    1.52297143799007   -6.65695022530327
C        -2.67432422283962    1.66726727473390   -6.77297514352468
H        -2.65916932095349    2.44236903552306   -7.52458685911776
C        -3.87887180581095    1.18693453690992   -6.29493104957495
H        -4.83258923885117    1.57036793957755   -6.67109438362613
C        -5.72644185563722   -2.07724856928289   -5.24560236061478
C        -4.70714094868297   -2.88789728320621   -5.72305263739839
H        -3.70166876667609   -2.50304013626932   -5.81541663662826
C        -4.99241854996083   -4.18849579948808   -6.10662035981243
H        -4.20155247753678   -4.81851838863054   -6.48691678209198
C        -6.28417136164069   -4.67667810431622   -6.01787964195473
H        -6.49995186507159   -5.68866470387259   -6.32720798263359
C        -7.30789781728385   -3.86324359486814   -5.55345722232703
H        -8.31930981583001   -4.23849896002082   -5.50629720921007
C        -7.03288526408051   -2.56516993707112   -5.17461534376856
H        -7.83194645195861   -1.89611287768162   -4.85168616455201
P        -6.88133583864138    2.50591900754573   -3.85566818845958
P        -5.52608662765817   -0.34363694911458   -4.75557100662475
Cl       -7.38938686745348   -0.31440004332537   -7.31559987771938
Cl       -9.19666935681944    1.98095165829012   -5.90375165399991

