64
CSD_code = GICBAY | q = 1 | S = 0 | Stoichiometry = C24H27F3FeN5O3S(1+) | MND = 6
Fe        7.54331135293224    7.76324349013298    3.08068446741564
S        10.51421369944445    8.68108443617674    2.27496447795310
O         9.10832181132040    8.36152643963211    1.98744771136825
O        10.64670170149927    9.52545577345969    3.43475704971960
O        11.40192328164732    7.56584028304642    2.18165915784624
N         6.61239316007182    7.51671835888999    1.50360453892514
N         5.81964797258047    7.27598966059445    3.88514735205449
N         6.93324241711767    9.50343954545124    3.29640479498943
N         8.33571515741014    7.61097052161309    4.91521966361196
N         8.46935348830433    6.03059014482415    2.85652490363285
C         6.86320164938632    8.03549000425413    0.31286481708170
H         7.65527541694813    8.76348764158367    0.29648346984372
C         6.17428390019772    7.64473623260655   -0.82385154663761
H         6.41581721571920    8.08205063523180   -1.77813231352316
C         5.17901347640361    6.68686241727138   -0.70802287297164
H         4.62393046069682    6.35665190025352   -1.57115740665731
C         4.90039370770160    6.16115648440646    0.54939490910911
H         4.12554395800980    5.42233882189803    0.68127416685449
C         5.64424071317000    6.59551106902240    1.63031174806627
C         5.44286812602030    6.13781735353291    3.05243502687914
H         4.40901009638138    5.81203293830535    3.22789908745974
H         6.11424383427470    5.30700676570624    3.27387495813744
C         4.87196056217028    8.38503429974812    3.67211686402567
H         4.11012231926554    8.41904544622060    4.45795074362042
H         4.35197284946314    8.24160844961252    2.72221751028395
C         5.64052181997839    9.66794254836170    3.58976878158258
C         5.06992586901831   10.91431798005227    3.77861458969497
H         4.02159444103026   10.99952580119728    4.01750383737552
C         5.86856549375754   12.04155636288924    3.64765027310356
H         5.45155847990382   13.02703386701073    3.77874449547035
C         7.21266709464584   11.86458248959963    3.35779331761315
H         7.87845530217662   12.70505071253177    3.25847178055575
C         7.70409205075308   10.58043403325445    3.20084874001916
H         8.74521380404726   10.39478457717597    3.01325740884388
C         5.99040956760189    7.00742160613511    5.31205311355568
H         5.33124772044650    6.20109976992306    5.65189983759240
H         5.73075406213534    7.91421303188571    5.85922823132822
C         7.44627617513033    6.66668709920380    5.62225232445067
H         7.65856871179009    5.65668834325055    5.26970634057862
C         7.75754731691231    6.83535364799620    7.12453243232775
H         6.83777329606933    6.85479254632723    7.70644906484631
H         8.35656154034624    6.00692788068315    7.49737536184942
C         8.52184394980311    8.16710380386334    7.22862857442303
H         9.55741704747552    8.00086081499813    7.51827966735912
H         8.07912350812025    8.83537687660373    7.96313400298004
C         8.44179413628646    8.75864351531417    5.81617372204651
H         7.54227467222354    9.36518018037265    5.71313960398898
H         9.29901746453652    9.36882104535211    5.54045968847711
C         9.63495318961511    6.96900580842638    4.73942104622831
H         9.98304343904806    6.48459769763967    5.65860434661207
H        10.36722412270341    7.72980846070762    4.46358011598118
C         9.55878957003739    5.98145368896316    3.62463984942291
C        10.59862761824606    5.08945161582723    3.39630426027862
H        11.45710947372914    5.09870682869778    4.04686535911047
C        10.53384635664561    4.23901845532538    2.31004904878947
H        11.33925358812175    3.55624387573755    2.09296447807349
C         9.40768256536232    4.29777303094942    1.50245446164115
H         9.30446215864962    3.66267568672639    0.63810330761013
C         8.41147480353215    5.19904827598600    1.81719773088681
H         7.52728578581186    5.25632875467732    1.20513467339926
C        10.84785526578001    9.76605649714794    0.78925079898462
F        12.08595704068366   10.22683135320572    0.70706405376269
F        10.56932268469830    9.07932413552448   -0.31975652527816
F        10.01040648501056   10.81098818700729    0.83028452534580

