29
CSD_code = GICKOS | q = 0 | S = 0 | Stoichiometry = C12H12CrO4 | MND = 9
Cr        8.02747277561781    1.16443742113594    8.04878904339616
C        10.17024282814776    0.77572047749092    7.29904539610033
C         9.86088997664998   -0.23763583855075    8.24295200794720
C         9.41648734935324    0.14137992765463    9.51597113301705
C         9.32738787530114    1.49038082729093    9.89419320102008
C         9.62207275211267    2.47755219789340    8.94994002127059
C        10.06212371331910    2.12971051778301    7.66156139577863
C        10.02996908243105   -1.68591511747025    7.87554202253709
C         8.83037476031089   -2.20540498125400    7.08049125110355
C        10.69865906841613    1.26166768151081    5.02658020411858
O        10.63519923241371    0.34409679049894    6.09659581397557
C         7.32289018418358    0.78335289904223    6.41621457049901
C         6.81972127914265    2.52111056197919    7.92961154340384
C         6.54422624698081    0.25900795381189    8.59188915270153
O         6.81880784058250    0.57012592269194    5.39580398185092
O         6.00306569849572    3.33233375449394    7.81779207548479
O         5.56116385467799   -0.28176055856820    8.87228568555981
H         9.23846659110339   -0.63215335002331   10.25525845852844
H         9.07180027405196    1.75931639150104   10.91084996256369
H         9.61201959654123    3.52275484288400    9.23692472232460
H        10.37288118865584    2.90942040179136    6.97942813833488
H        10.93302878032963   -1.79998088817843    7.27120204668569
H        10.14501951932099   -2.28055786484022    8.78520229605775
H         7.91315863665645   -2.08688013341348    7.65499717163590
H         8.72698676639941   -1.65264888718127    6.15053066310865
H         8.96522641697148   -3.25831635921175    6.84488518081340
H        10.93084870258492    0.66556693561825    4.14584708579206
H        11.49008342100050    2.00375326759880    5.17429762077785
H         9.73702558824774    1.76466520601988    4.88311815361182

