87
CSD_code = GICRAM | q = 1 | S = 0 | Stoichiometry = C37H44ClN2P2Pd(1+) | MND = 5
C        10.52564018252626    4.05477800042682   10.54660316560831
H        10.28009015027814    3.94173082516443    9.48804007927598
H        11.05989884454323    5.00037890332544   10.68467712765874
C        11.38683504221983    2.88726057377374   11.01669545050644
H        12.36595069945258    2.95925931627553   10.53572866639656
H        11.53972115037658    2.95183037715898   12.10026013336365
C        10.75424892656706    1.54617387793388   10.64749690471084
H        11.47854258598286    0.72586374531882   10.70904415600452
H        10.37446640020919    1.58088891930738    9.61878152339176
C         6.02640415656116    3.75481779009382   11.72829681171946
C         4.22715941700694    5.05565768141272   10.44826804631861
C         4.94251167721261    5.65998152881334    9.23800074922962
H         5.54126216710329    4.90444934024768    8.73269332409714
H         5.60261281023965    6.46627592787039    9.54717251860878
H         4.20779520136601    6.05288804651170    8.54152019379827
C         3.60275157675749    6.13761339328425   11.32913768117238
H         4.36672919235543    6.82950194127649   11.67692085699795
H         3.10759631970498    5.69725538652819   12.19212018176337
H         2.86846570537141    6.69202561824054   10.75213476149845
C         3.18893502247944    4.01825456743580   10.01080658280025
H         2.41753204515594    4.50403516692886    9.42055973766294
H         2.72253733182715    3.54990423598668   10.87556918039880
H         3.66181148860052    3.24946645976622    9.40313638645780
C         6.29566623001091    0.96359144865703   11.96652232405989
C         4.74168667862145   -1.07664370760198   12.09789834137185
C         3.52885354975712   -0.71172638691770   12.95691483406607
H         3.83836276849397   -0.42350788164238   13.95912608128126
H         2.86719351912389   -1.56961119580699   13.03179604341022
H         2.97783219943201    0.11339104813155   12.51100614846664
C         5.55176579680280   -2.21064718436822   12.73097138644019
H         6.43692121289738   -2.42639795680734   12.13576720037251
H         4.93908463455221   -3.10579874204626   12.78340848303481
H         5.86484096845288   -1.94477214533433   13.73831492695811
C         4.32284626053282   -1.42951407259201   10.66924939337186
H         3.79504712627944   -0.59800611068012   10.20760971414772
H         3.66372830819545   -2.29248696547506   10.68823276219537
H         5.19636100870438   -1.66734883987713   10.06630082957451
C         8.32443849664722    5.85713046552300   11.07485360945809
C         7.58627496638221    6.52853584044998   12.04697541797496
H         7.39897365965579    6.05118672704581   13.00250326699584
C         7.10317669197309    7.79860320433949   11.79441532048561
H         6.54068527405535    8.32252228726767   12.55348194872660
C         7.34957153954710    8.40178280372344   10.57002140518689
H         6.97421527711038    9.39464619099721   10.37382172949997
C         8.07072434601588    7.72798295626605    9.59738308878496
H         8.25269898888250    8.19363173968789    8.64084298771453
C         8.55836601895142    6.45578562067142    9.84330299963400
H         9.09267372321754    5.92166389952613    9.07321974597742
C         9.61642383516040    4.54692679140020   13.18332832973513
C        10.62543122421047    5.47424895563477   13.42592097396399
H        11.03536009346393    6.05536417701528   12.61186274902885
C        11.09796138493588    5.66797727028167   14.71060062506961
H        11.88386761731565    6.38603990374237   14.88957797835967
C        10.56487255960716    4.94629512875778   15.76733227591985
H        10.94195786273478    5.09609352519441   16.76723837451159
C         9.53791365655857    4.04579206579571   15.54073517636410
H         9.10607587466143    3.49611441547440   16.36387696482205
C         9.06385998931732    3.85293157103384   14.25544397856203
H         8.23089084217950    3.15926365254619   14.08105320190556
C         9.97012415746082    0.65414668668135   13.34105364180926
C        11.31877487875124    0.51837895792188   13.64806028503772
H        12.07424394923411    0.65697160129103   12.88943915907466
C        11.70018196944081    0.20032997414114   14.94068396752796
H        12.74849205051297    0.10037646458704   15.17745905951041
C        10.74663552343382    0.00991793947675   15.92641443111175
H        11.05237150529562   -0.23552696593544   16.93165932215412
C         9.39934113556001    0.13565890777794   15.62300897979380
H         8.65541440185443   -0.01558784148614   16.39080737727619
C         9.01354215752040    0.46315568936339   14.33821299873721
H         7.95945421104178    0.57712446324648   14.09067273627815
C         8.85257770130379   -0.48328852807322   10.92340078134746
C         8.06011332157134   -0.38847983190540    9.78005869713140
H         7.74240794506245    0.59018255168245    9.42309434210833
C         7.69197427125538   -1.53680769646097    9.10384731464170
H         7.09495866021090   -1.46629391739760    8.20673664000694
C         8.09745220660230   -2.77750875195811    9.57499984043754
H         7.80684818143078   -3.67420837999474    9.04915955166267
C         8.87470924653083   -2.87067567716553   10.71861358830463
H         9.18672866823167   -3.83783064392657   11.08272169224876
C         9.26063010247432   -1.72497578672048   11.39449003209966
H         9.87076038690364   -1.79272694895803   12.28460489968211
N         5.19724837882695    4.36815550761311   11.20453360712123
N         5.57944012984066    0.05579310105334   12.02901464136219
P         8.96171982823237    4.21338158173303   11.49487427147295
P         9.32836403502860    1.08636189267788   11.70104140324455
Cl        7.75839380308515    3.32625257139892    9.23155581985434
Pd        7.52699491499019    2.46649095611720   11.76940608206428

