75
CSD_code = GICTIX | q = 1 | S = 0 | Stoichiometry = C35H35N2P2Pd(1+) | MND = 5
C         5.41588033604248   11.35974772467366    9.79902676487093
H         5.02456824389352   12.14536055901074   10.45213428133835
H         6.15023136951470   11.80935334989205    9.12317722707450
C         4.75741080038530   10.16818481971321    7.76852649578728
H         5.47762587379174   10.83287093327566    7.27716700525256
H         3.87539584303833   10.07818086243456    7.12670517537578
C         3.19733785653735   10.35589885511645    9.64176854167002
C         2.60108980546314   11.12744543155146   10.64533134310813
H         3.01858822424679   12.07123454244672   10.95513115899270
C         1.43910964976988   10.67361182614450   11.23892449828829
H         0.95955810017341   11.25257540863246   12.01606757618680
C         1.37897387573622    8.82506841721515    9.94796425481204
H         0.86159223355399    7.90942505067288    9.69487561915423
C         2.53675940404111    9.18056018130901    9.27818531629006
H         2.91668281663835    8.53339523055398    8.50290741468640
C         7.91949456596976    7.32151694519779   11.40965931417667
H         8.67760692370778    7.91009019181873   11.91991843308359
H         7.21307385101414    6.82194613220939   12.07770943831648
C         7.22076373395360    6.03995159011532    9.51180126108704
H         6.48515268266563    5.48786834772001   10.10378375017478
H         7.41881172297521    5.61913128157738    8.52988926639108
C         8.25885642186687    6.70437903270792   10.18867856443024
C         4.98177236722076    9.69216745798656   12.10241811861627
C         4.35314402000170    8.45018055601045   12.01401912698127
H         4.65383965231584    7.73714380912541   11.22899863574876
C         3.33548026350819    8.12736379404239   12.89221165400957
H         2.83717700923792    7.17308432963012   12.81802110818249
C         2.95208829411621    9.03443632049216   13.86734803715416
H         2.15573435063485    8.78237577400913   14.54962180564970
C         3.58794641847915   10.26195762681953   13.96956949183058
H         3.29046984068888   10.96197411709993   14.73515612079242
C         4.59997601131875   10.59621050409955   13.08929366726203
H         5.09802154017227   11.55337220891533   13.16467685429583
C         4.44922210825276    7.34016293021667    7.03900264414835
C         4.08687584876135    6.15128114791933    7.66510797389389
H         4.47165035031826    5.93904515024774    8.65710589148313
C         3.23135187888911    5.26786583611024    7.03282915649029
H         2.94961327554659    4.34665678843620    7.51929978487652
C         2.73384641254848    5.57117179355929    5.77561581892167
H         2.06719375382322    4.88284864841158    5.27995571551564
C         3.08278252196424    6.76094972086876    5.15428812391311
H         2.68705707785379    6.99688837295511    4.17827048900114
C         3.93545389016977    7.65077910575566    5.78152416420576
H         4.20079298400631    8.58205461002075    5.29950819187819
C         9.55812897123033    7.01915163134995    9.50558335664915
H         9.91026911071395    8.02025143524075    9.76618372453403
H         9.47055847504053    6.93494033398118    8.42140519577095
H        10.31151255698335    6.30454009200449    9.83996600132982
C         7.53284982380932   10.99964259070900   11.77094447349917
C         7.84589234482694   10.60185002703400   13.07025621445564
H         7.29296833830289    9.79188732755278   13.52805815331948
C         8.84843910309211   11.24519185394231   13.77031464641736
H         9.07931236461047   10.93977059966878   14.77947031973839
C         9.55657877304711   12.27894565854131   13.17684711364694
H        10.33795991021093   12.78187382245888   13.72493749356457
C         9.26522562913974   12.66186247711170   11.87799037889589
H         9.82170987211261   13.46083412449344   11.41219784214463
C         8.26203625082697   12.02253968740179   11.17077920861696
H         8.05164554751591   12.32435564827791   10.15460407829086
C         7.03324571048868    8.66258972193696    6.85176647390982
C         7.18035139026823    8.10017135085047    5.58964664299770
H         6.38089147838987    7.51660366652243    5.15766904657784
C         8.36333794349822    8.27436031625764    4.88987734668282
H         8.47104193307974    7.83682658922149    3.90926364897374
C         9.40468618709774    8.99945506907643    5.44327788655648
H        10.32283462833574    9.13262896464046    4.89275048116618
C         9.27370212004365    9.54368879967611    6.71280082167669
H        10.09208172389023   10.09520557357357    7.15108000111908
C         8.09898865153619    9.36977650456730    7.41946557942489
H         8.00057650471556    9.79188650189425    8.42744602645770
P         6.25808773177994   10.07454164678120   10.87062607192230
P         5.56412314420109    8.46648709036747    7.91598166870098
Pd        6.66609256289518    8.06106826748192    9.87602456407476
N         4.36535002429803   10.77186631390652    9.01035589744011
N         0.83886698838467    9.54043899681518   10.91645436563895

