42
CSD_code = GICWAT | q = 1 | S = 0 | Stoichiometry = C14H23N2O2Ru(1+) | MND = 9
C         0.79201736272607   13.16446668829945    0.05953676327025
H        -0.13995892011146   13.68346257552583    0.25554957518111
C         0.79311301099083   11.97094731293890   -0.68185608881862
H        -0.14244746771140   11.57752677193287   -1.06413061809646
C         2.00062117077669   11.33170458917407   -1.02900561022880
H         1.99387263576127   10.45704556936948   -1.66675969325414
C         3.21948364952299   11.93215066344971   -0.65199765526804
H         4.15328635519160   11.50923841796713   -1.00677361394855
C         3.23530940577459   13.13043826956276    0.08056817264483
H         4.17556395855563   13.62538722981659    0.29763444504495
C         2.01781636588717   13.74418584137725    0.48034342202536
C         2.03387227428195   14.84270630264157    1.47329539895894
H         1.13132726551239   15.45424690080228    1.44409593825919
H         2.90145666164606   15.49515813945749    1.36876087637861
C         2.11447113854193   14.22981486887056    2.93051528485478
C         2.68347550640647   10.07477843753620    3.61313948014925
H         3.27329698231056    9.32573889044055    4.15515431192052
H         2.56182448475904   10.96055490887345    4.24561755633829
C         1.31254082334074    9.51285108888212    3.25166802123637
H         0.74550404343044    9.30044423337769    4.16377500365309
H         1.42569570901362    8.57505838191544    2.70244632173686
C         4.57302856816532   11.27068058033980    2.76808434745899
H         5.23396422105069   10.66938436386014    3.39868847890111
H         4.27208792784090   12.15947604058230    3.32382719794600
H         5.12467000627083   11.57289991500527    1.87908606749684
C         3.80863753289655    9.34632000752988    1.59120521032367
H         4.44295433710738    9.67503777908375    0.76957828918284
H         2.94988943206262    8.82021600235742    1.17361126637421
H         4.38538814395534    8.64676591435584    2.20464435732404
C        -0.29512406163167    9.75522469178360    1.48214169286076
H        -0.93085213375167    9.05315753793925    2.03113639613216
H         0.29520676587418    9.19520975692891    0.75427341334882
H        -0.94557199126800   10.45117856672691    0.95574563391714
C        -0.25673949315956   11.34465674595703    3.25059427337730
H        -1.01556293381994   10.75142001382277    3.76895042985873
H        -0.75864701380917   12.09071248906068    2.63449288222717
H         0.35887416245565   11.86373398823454    3.98464717973980
N         3.38262793641519   10.50399852625280    2.38558319886105
N         0.58298946849996   10.48632999194374    2.40328833633293
O         2.10426790926827   12.95160063655515    3.03646930859047
O         2.18607078239209   14.96992938268150    3.87610281299536
Ru        1.99959801657781   11.72116098678734    1.34997193471250

