65
CSD_code = GICXUM | q = 0 | S = 0 | Stoichiometry = C30H30Cl2NiP2 | MND = 4
C        -2.36292195185678   -1.16421970571881    5.08275278077088
H        -3.06784466383873   -0.37271253913741    5.32398086619639
H        -1.60680022844254   -1.20221353688416    5.86412803674211
H        -2.89736435839548   -2.11171184749777    5.07383571054022
C        -0.82459012274139   -2.12300278185181    3.36210381831135
H        -1.45186638393178   -2.98416385076768    3.14285999026344
H        -0.17034664306878   -2.39157669728905    4.18752148560287
H        -0.21591564554368   -1.91174189869421    2.48534614180857
C        -1.43174734505322    1.59968817207402   -0.45759029465381
H        -0.80671118157487    1.06775340844622   -1.16024862839019
C         2.88020483100071    0.69683991100614    7.85700521869452
H         2.58254059660652    0.07544411245294    8.68922676764161
C        -2.44408664030794    2.42888421969734   -0.91465873618269
H        -2.61441024753074    2.53632092215717   -1.97566324731432
Ni       -0.14104226261379    3.47716668489603    4.15746445304198
P        -1.59598934024949    2.06795322876933    3.56620565358768
P         1.27179737113004    1.94747323429518    4.34028140592009
Cl       -1.68276472743243    4.84276145083393    3.73060180203724
Cl        1.48066234108242    4.70477586647048    4.70488115021938
C        -2.01575691946003    2.14491950639557    1.80965421071551
C        -3.09212828898469    2.13291049405606    4.59435147159796
C         2.41258527326254    1.66459606994389    5.71071684917357
C        -0.89734478322181    0.35428973793216    3.81790893193917
C         0.39024939431738    0.36081347654096    4.18139735187018
H         0.95852171548308   -0.54262468629973    4.36396264302844
C         2.29433888789822    1.89400072145329    2.84110064385344
C        -3.00416164431217    3.00905616094816    1.34779457888129
H        -3.56787152988503    3.60287961253397    2.05177806480222
C        -4.40788221060131    1.99474994159309    4.17114388990560
H        -4.64056265893724    1.82100238728125    3.13017542052456
C         3.64101290552520    2.31783361929202    5.73327002811855
H         3.91091303672389    2.96759454066169    4.91319232556822
C        -1.21241017343176    1.46083513154110    0.89945885580063
H        -0.40835578590479    0.83216216950673    1.26129889371793
C        -1.71266913044725   -0.92082742669276    3.71197215091215
C         4.48878793710544    2.14308802607288    6.81083544098849
H         5.44322706749917    2.64774505070534    6.83059376571632
C         3.34128318179312    0.99146181196701    2.69257139087125
H         3.61647337488437    0.34397341959673    3.51413852919042
C        -2.82323939626173    2.39202295422523    5.93833895420083
H        -1.78985979019048    2.53911859221524    6.24741232791227
C         2.62813667491783    2.67302694007740    0.59428837286512
H         2.35322608401862    3.32594588759723   -0.22051752593229
C         1.93713451766821    2.73132789658240    1.79014914858059
H         1.12126402996397    3.44133434012682    1.92910487432358
C        -5.16297207962076    2.33521911911773    6.42902758183302
H        -5.97270857338767    2.41639711099922    7.13871050017860
C        -5.43636767418475    2.09580122633680    5.09309465033729
H        -6.45931262551012    1.99288214045933    4.76174687607396
C         4.11238458331445    1.33046066150999    7.86898076520105
H         4.77615762922286    1.19848906346603    8.71066707955931
C         3.67528897324175    1.77710902268462    0.44852713989531
H         4.21979499067651    1.73177490506123   -0.48313395645784
C        -2.80637611369202   -0.81373193620367    2.64970595478078
H        -3.41727006326227    0.06873022319980    2.81001126092670
H        -3.45207340531286   -1.68848063713804    2.69942353768926
H        -2.37532629446028   -0.76298520140077    1.65272248059022
C        -3.22081432917732    3.13731353178411   -0.01241598589292
H        -3.99081140303851    3.80455933956535   -0.37015696447767
C        -3.85171012742992    2.48815790381676    6.85341962591381
H        -3.63694085629740    2.69311741414972    7.89158328705741
C         2.02595108851620    0.86739985916380    6.78310919657228
H         1.05409411709352    0.39049286841571    6.77406867665378
C         4.03182414439656    0.94075738953168    1.49549047348276
H         4.85127285226513    0.24678126633888    1.37689185607976

