40
CSD_code = GICZEY | q = 0 | S = 0 | Stoichiometry = C15H6CoF9N6S3 | MND = 6
Co       -0.36779378409232    5.03071065593690    7.75884284884797
S        -1.97694804101429    5.58606591070080    6.22311218672608
S        -1.40973301403147    3.02120988498712    8.34536881355235
S         0.87170661075779    7.04037871974337    7.80852574624693
N         0.32828713389810    4.58106422904981    6.08623434661523
C         1.47355348192854    3.92208295368054    4.13352416533414
H         2.33880122237514    3.49912226224182    3.65462762388288
C        -0.70967721969476    4.97251768185931    5.29055325412270
N        -0.70626209093277    4.87840384589545    3.97033533558913
C         0.36828869004481    4.36552010775717    3.40894100062082
C         1.39831409305045    4.06043421517107    5.51297852044799
H         2.21277683483555    3.74763526604052    6.15365566379243
C         0.32817993910094    4.28139934978650    1.89551194295890
F         0.14771926604883    5.47801951080274    1.33297483310068
F        -0.65440520871663    3.48404246805734    1.46765769929961
F         1.47140845167306    3.78698765842237    1.39594407643957
N        -1.37466890576056    5.36239581397629    9.28914742066077
C        -1.93281360508581    4.13865277418447    9.50620889708896
N        -2.76626386750264    3.87070570126303   10.49688426989068
C        -3.08613385198698    4.86964645891695   11.29606365378150
C        -4.03962018332799    4.51188498106931   12.41983377865066
C        -2.59617304721311    6.16360894106508   11.13741868702145
H        -2.88127221246206    6.96690455393237   11.79381520147531
C        -1.71070649660496    6.36231779728174   10.08469668452060
H        -1.26969622532314    7.33005766331639    9.88358799732868
F        -3.57036239671646    3.50822913428723   13.16642688356344
F        -5.23747033565244    4.14370772965463   11.95969193564319
F        -4.24261487824099    5.54753080034726   13.24737710446060
N         1.24364865347169    4.71649490953235    8.75743314599872
C         3.11146612583194    3.98476399605890    9.99609005950509
H         3.63892470749862    3.21186754101151   10.52691221174360
C         1.82717991006030    5.94587516418089    8.67515075297651
N         3.00258611552323    6.23771376274193    9.21453169382609
C         3.62607695596846    5.27302784781942    9.85830904147778
C         1.87415841406513    3.75418293151138    9.40699353337143
H         1.38798332743081    2.78804996178522    9.45493722503545
C         4.96435683766810    5.66168658576748   10.45727303156278
F         5.58579262028763    4.60928261235404   11.00930559234564
F         5.79411478014722    6.16398829967788    9.54099320302364
F         4.82569119269858    6.57702931813779   11.42092993746396

