67
CSD_code = GIDBUT | q = 1 | S = 0 | Stoichiometry = C33H25ClN4O2PRu(1+) | MND = 6
C         8.27889737687985    4.16088962853669   10.16470365847514
H         8.75896652965482    3.96688553044193    9.21196446444326
C         8.10994645480138    3.13803871120078   11.08248682900309
H         8.46169444054247    2.14700628834531   10.84555571280327
C         7.49801035585475    3.41165021936191   12.29748151670365
H         7.35053192860102    2.63358467919621   13.02983111969047
C         7.10428168362608    4.71225198988883   12.55662515278944
H         6.65068399108449    5.01070642602659   13.48932562422299
C         7.32052432532360    5.68736959947755   11.59164047736969
N         7.87649733773873    5.40624479329513   10.40573514226797
C         7.58276607736563    9.28917072637822   10.95494820411450
C         7.23031453784156   10.10368731021550   12.01626520265374
H         6.81548646579373    9.66445882822472   12.90891413411141
C         7.42687424721507   11.48496170853305   11.93613110855845
H         7.14226726416637   12.09551115840774   12.77891586966138
C         7.97939416708380   12.07007085322924   10.82609638794858
H         8.13799906271556   13.13582104585472   10.78093578664584
C         8.37991205797566   11.27779021063664    9.73337492640662
C         8.16597994786012    9.87510069450149    9.79383610485750
C         5.14244730261094    9.90652577066815    8.23006574464014
H         5.52334361292824    9.78359872463798    7.22495685733818
C         4.66021546407564   11.13400671712682    8.64369135616497
H         4.66745829933780   11.96938816003560    7.96044069973329
C         4.16836497615547   11.29038311987023    9.92985476343768
H         3.78954469101912   12.24853043753271   10.24963539879091
C         4.16706840334342   10.21787675614980   10.80664581663667
H         3.79264699222721   10.33830243941419   11.81132148055024
C         4.65749537012892    8.98794541966313   10.40678482527203
H         4.68558049834733    8.17273982916278   11.11540192338680
C         5.13253532651144    8.82062725096459    9.10598281540330
C         5.41530749676109    4.61309652240459    8.80020638655403
H         6.33850603109694    4.55672893025561    8.23142977832488
C         4.74432737302963    3.46384860668164    9.16655501417338
H         5.14642005317689    2.49665501380723    8.90635655714612
C         3.54755012252424    3.55774903753742    9.86219581738597
H         3.02419597816271    2.66140256152250   10.15626355156757
C         3.01347315967944    4.79995522842936   10.15989345015753
H         2.06899731136410    4.87187875982252   10.67692531180597
C         3.67916580422979    5.95833143806550    9.79263268336861
H         3.23877021732203    6.92030803191760   10.00668483213619
C         4.89850160265670    5.86710623140747    9.13158650622104
Ru        8.19700337426532    7.07792866314135    9.26230026844392
P         5.89803881848909    7.27061530161198    8.56179295457352
Cl       10.27773968752183    7.17772360708660   10.37669835189761
C         6.60344739710783    7.53137449271552    5.86675053236361
H         7.59597110632677    7.76525255656008    6.23183279412859
C         5.58782021399679    7.24431704076527    6.77225269252045
C         4.04972768999614    6.96212463812819    4.95083270926155
H         3.05587778655395    6.74203033238023    4.59288482291578
C         6.34217046608414    7.52820653767032    4.50802280591224
H         7.13331785843699    7.74700560264442    3.80741717906044
C         4.30404978370790    6.96306619734117    6.30953900790721
H         3.51397992074874    6.74421652769214    7.01384834063001
C         5.06658346750296    7.24068469217077    4.05017997120445
H         4.86422185705200    7.23409467353646    2.99055980996021
N         8.53836445541359    9.05168725838897    8.78022260406560
C         9.01798332455132   11.78766172940401    8.58544582694234
H         9.19801776026750   12.84887138093071    8.50619015973365
N         7.47651115219658    7.91491285263539   10.88618089204183
C         9.16997368542454    9.55469710880690    7.73937755645005
H         9.50595834433399    8.86709143329436    6.97168740214858
C         9.42531668845538   10.92387695793270    7.60263935885958
H         9.94466510979761   11.27444459567784    6.72573476057704
N         8.82234539420164    6.30562826900277    7.91221407780649
O         9.25894601997771    5.71375329014717    7.02527829847601
O         6.45783400909581    7.47203083424809   12.91630089765891
C         7.02049028980988    7.13261803727989   11.89123693153719

