57
CSD_code = GIDFUU | q = 0 | S = 0 | Stoichiometry = C17H32B2FeN2O3 | MND = 7
Fe        3.56622049774462    3.29225021386877   11.67070043961370
B         4.81059556998319    2.43420160861792   13.41045211244118
B         3.00476434883644    1.59888777752579   13.03766162767621
N         4.34988040890331    1.41861708032834   12.43848238607355
N         3.46084064488763    2.69813403381835   13.89384716127563
C         2.85080482773002    4.84450320691666   11.36877466406734
C         2.29920966621628    2.65815167508753   10.60521905218080
C         5.06046626136368    3.97893056198308   11.00411241511683
O         2.38551615530118    5.85865184072848   11.07202963405702
O         1.48947796493031    2.38618738667045    9.82943827408589
O         5.93488917316753    4.49125032095649   10.45085433795605
C         6.23990830304713    2.79578162399609   14.00552310482131
C         6.75477610462899    1.75989862436233   15.01841538724354
C         8.09314896914020    2.17703950603926   15.61655958530453
C         1.73949195278891    0.63479653446467   13.09536609802502
C         1.65855817630855   -0.20401845689248   14.38084149220208
C         0.48770895248917   -1.17923389225819   14.34159067756038
C         4.98709303259583    0.33865250984135   11.69779611085007
C         6.42799745486198    0.71960398732792   11.34766910853806
C         4.22441723849883    0.08759645270374   10.39279827829859
C         4.97891893533666   -0.93525150667121   12.55467860547439
C         2.87336897102448    3.53673238377721   14.92485231510292
C         3.45630253491011    4.95109936821736   14.83632564132629
C         1.36001394180046    3.61980926419559   14.71178873336687
C         3.18484334571737    2.94135181108476   16.30499657045507
H         6.21267772400962    3.76373706326588   14.50875155209067
H         6.98307833545514    2.89302331900343   13.21298487136405
H         6.86998495734114    0.79049820592649   14.52927710255174
H         6.02352092149648    1.63295035787455   15.81967195884565
H         8.44881108073958    1.42882989965971   16.32181828829156
H         7.99894144559552    3.12534847238636   16.14154632245234
H         8.84013384804027    2.29427725853197   14.83427072159974
H         1.74583414673790   -0.05446523940201   12.24872381437494
H         0.81240735878023    1.20420159333679   13.00684553106921
H         1.54256461985764    0.45538599457900   15.24292924594701
H         2.58846440030137   -0.75963056385205   14.51974875059643
H         0.43712108021458   -1.75632061887040   15.26252060128431
H         0.59346383756860   -1.87166312264274   13.50901713507307
H        -0.45108069147149   -0.64288927397254   14.22030582966005
H         6.85602504531622   -0.01646056758595   10.67175602650926
H         7.04782425137672    0.76695181178057   12.23724977574010
H         6.44219294070168    1.68947539127287   10.85569293525400
H         3.18663937453813   -0.16385282534874   10.59011709686487
H         4.67777336575830   -0.73068089400367    9.83882846928432
H         4.24867637282915    0.98730702145871    9.77853111931929
H         5.55477289407794   -1.71948996150227   12.06964833325602
H         3.96234241361905   -1.29070925914682   12.69588287716848
H         5.41490110730443   -0.73689975823684   13.53131367086162
H         2.97984940210794    5.60299436844416   15.56399928674234
H         3.28962493954003    5.35245204083797   13.83706325711269
H         4.52439533506659    4.94498717720175   15.02880829681416
H         0.91964249183396    4.33550541357729   15.40112439173408
H         0.89044360725727    2.65489140005868   14.87297702722346
H         1.15586973704174    3.94334115996869   13.69188445286480
H         2.68963912507451    3.51581980452381   17.08353787813000
H         4.25573639419217    2.95976012325741   16.48892725191875
H         2.84331470548498    1.91070029092711   16.36127231488788

