65
CSD_code = GIDGAB | q = 0 | S = 0 | Stoichiometry = C20H36B2N2O4W | MND = 8
W         1.14485013708662    2.00331671129119    6.78661755451740
B         1.37867443458149    0.38864121563793    4.94983078667763
B         3.06893648045879    1.33059005945332    5.41536810034549
N         1.91820593990488    1.70008335198963    4.57677845160016
N         2.39304343717551    0.16363501474201    5.99116010668775
C         0.77521478608722    1.84045580808087    8.71070089274825
C        -0.58866408372825    1.08493194105282    6.47372708668952
C         2.74245608989816    3.06556393061692    7.30196537170199
C         0.10302878233414    3.66130525044095    6.96045658015206
O         0.56183123416793    1.76070114761784    9.83912764516625
O        -1.64535207513270    0.64627568152290    6.40951474932046
O         3.57044096356119    3.74631054799312    7.70721942017470
O        -0.51715606885065    4.62472987948512    7.07159023498042
C         0.41592360721746   -0.63534357395637    4.20259426784468
C         1.03803173496342   -1.22044404781351    2.92442178457111
C         0.15456790519992   -2.30578738551467    2.31273789349890
C         0.75378185936531   -2.86634081406006    1.02886997608555
C         4.60089174676358    1.75130207821253    5.31610907077160
C         5.42788020345128    0.80154081255845    4.43455272748528
C         6.85399847490946    1.31191700108483    4.23873277204157
C         7.68386189730956    0.35970941190756    3.38657321361204
C         1.70236432151984    2.65959819272934    3.50482217104917
C         2.01782604792296    4.07235033722113    4.01244495695510
C         2.61787601330582    2.33501078167470    2.31472728888098
C         0.23500287108779    2.61080236612126    3.06741969476890
C         2.77568236966538   -0.97268835090717    6.81500106018766
C         3.89053781863519   -0.55011748375892    7.77696891270731
C         3.25723818931093   -2.12937505955754    5.92619422413300
C         1.56688518171103   -1.43812381919414    7.63674704779076
H        -0.53220473499173   -0.16721125138854    3.92935004373948
H         0.15942861923863   -1.46963129368406    4.85986349791595
H         2.02229051338419   -1.63921356129832    3.14695829452180
H         1.17955397871824   -0.42641423968870    2.18844463488206
H         0.02280637104456   -3.11513149096056    3.03473089839266
H        -0.83288208403946   -1.88908580054673    2.10141889893344
H         0.11082105024344   -3.63806640658391    0.61291782075820
H         1.73201974410115   -3.30196375179832    1.22167927790920
H         0.86992225957919   -2.08030128746759    0.28556829936339
H         5.07096109780742    1.78820846456622    6.30120478557243
H         4.69589002330161    2.75760081253391    4.90118024863396
H         5.46861005504110   -0.18659393345488    4.89727963798980
H         4.94881812026976    0.68638051682584    3.45943234900284
H         7.32932317927507    1.43477443499305    5.21458929764341
H         6.82476101566825    2.29392277571355    3.76075345333500
H         8.69301952618251    0.74332576596092    3.25842897143884
H         7.23571136788492    0.23774501538318    2.40262461958609
H         7.74698878287930   -0.61916912925127    3.85733470429526
H         1.90329546732249    4.79399350453907    3.20702734225014
H         3.03801265822504    4.13476308583988    4.38318033833195
H         1.33835360347434    4.34240993332527    4.82049823169754
H         2.37594371476564    2.97582124589952    1.47068537641941
H         2.49610001819803    1.29854513184994    2.00850502430021
H         3.65902994245026    2.49581697991911    2.58095922566195
H         0.02166413438013    3.42403211328575    2.37841733851310
H        -0.41478351324299    2.71660159275311    3.93656362176965
H         0.00767820109808    1.67240027676362    2.56945991783854
H         4.08037353608676   -1.33858547003376    8.50074950179880
H         3.59309332200322    0.34892368135073    8.31741792597022
H         4.81343961015401   -0.34959369579208    7.24003919883653
H         3.65192578201142   -2.93443766347909    6.54074390900521
H         4.04070552819492   -1.79355165694010    5.25070729461222
H         2.43521766510474   -2.52097461075809    5.33317016457584
H         1.82824772207455   -2.31566827419970    8.22342453192229
H         0.73204754081658   -1.69695731263405    6.99008394575579
H         1.24705588140816   -0.64836548821025    8.31613333368570

