45
CSD_code = GIDKEL | q = 0 | S = 0 | Stoichiometry = C18H20N2O4Pt | MND = 4
Pt        8.47277865219496   13.40042094104121   14.91453868928283
O         7.45216751382802   14.75514771676087   13.80717231543501
O         3.51477401893855   12.25560585214217   12.83630230800838
N         6.96876373196948   12.09664654768099   14.75522322076633
C         5.48531054266690   13.44872378196104   13.35784643442604
C         6.29439576838590   14.61777564778522   13.26215344452197
C         5.79093282219795   15.71118044256019   12.51460009449780
C         4.57293333339233   15.64755217332387   11.89974308919009
C         3.77648565372379   14.50392792389395   11.98224648597156
C         4.22256088354340   13.41679665369748   12.70056958975569
C         5.87887007988170   12.29726149574246   14.09358626104969
C         2.26302189785084   12.15098215743873   12.20353905696742
C         7.10403210486392   10.82180518927610   15.42785505933172
H         6.40690759603540   16.59451555839110   12.44884942475294
H         4.21029531731686   16.49391947092188   11.33455167698733
H         2.82332967125703   14.49394371396801   11.48047460636166
H         5.13840220433907   11.49697962467484   14.08044130018613
H         1.89632984798319   11.15346152117225   12.44249498087297
H         2.35170377437674   12.25247954036631   11.11739528854324
H         1.55652974979323   12.89591066429411   12.58279477173807
H         6.22200218492979   10.19370393983780   15.27167731607316
H         7.24741084837688   10.98772723451641   16.49608706295274
H         7.98908024942536   10.30545125737449   15.05497319925127
O         9.49340128962558   12.04568067483521   16.02187876924697
O        13.43087026732538   14.54515241900215   16.99262493333206
N         9.97675847568112   14.70422845456149   15.07392661965602
C        11.46028839713194   13.35207845005221   16.47115529525976
C        10.65120287402124   12.18302720568485   16.56684625213113
C        11.15469419302476   11.08959077935323   17.31433058718580
C        12.37273911966263   11.15317796016492   17.92910546355947
C        13.16919210486325   12.29679581810952   17.84659587502307
C        12.72307965746046   13.38396691614877   17.12835235489225
C        11.06668328228523   14.50358218764012   15.73550214620120
C        14.68265975988573   14.64974168711940   17.62532130061240
C         9.84142793602748   15.97912913528025   14.40141839243543
H        10.53870964434437   10.20626369696051   17.38009088185999
H        12.73540142293820   10.30678023920901   18.49423594005999
H        14.12238107093503   12.30675045560139   18.34830622365280
H        11.80714273229851   15.30387197087973   15.74866683313872
H        15.04935215349165   15.64726396846807   17.38637323198899
H        14.59403831167924   14.54821346668635   18.71146735309792
H        15.38912124478807   13.90481514976463   17.24600394691450
H        10.72346119794795   16.60722703535276   14.55759129802972
H         9.69797459028916   15.81329775954945   13.33318299762396
H         8.95640182702174   16.49544552075434   14.77440762717526

