71
CSD_code = GIDKUB | q = 0 | S = 0 | Stoichiometry = C26H34N2O8Pt | MND = 4
Pt       10.24062715592075   10.31215028432723    7.52537529819385
O         9.89437753346516    9.04853888202296    5.96323601789450
O        10.69490361611777   11.65112372659848    8.97709403951606
O         7.12975019523426    9.74015840150808    1.27306875917398
O        14.13775624487407   11.42903153091365   13.23927209123469
O         7.25668774941909   13.07953232777571    9.73489985962655
O         8.20925608281879   10.69896355407652   11.43820583508383
O         8.76935398611517    7.74877038001035   11.90080005090122
O        10.42093052474833    6.72268935017279    9.45315547483337
N         8.86623158044167   11.58711534506635    6.81181298853182
N        11.58031172085086    9.01563814292198    8.26289260527603
C         8.43318325734566   10.47100173159128    4.67988610847229
C         9.21722070145634    9.30606993620945    4.89507144844800
C         9.23557466946481    8.34047112530866    3.85495511279613
C         8.54765964221266    8.51809815017027    2.69023545681384
C         7.77696885751232    9.67650789516216    2.47822027164490
C         7.72596979119478   10.62735715341234    3.46603220485568
C         8.28184061919306   11.48621401132000    5.66332175435395
C         6.33523613685615   10.86751725501342    1.00836835226681
C         8.42271704431950   12.65452919009450    7.68163164867288
C         7.56075097835649   12.06146021962684    8.80160056730393
C         6.80200503705955   12.59718354094411   10.97450978922411
C         7.91104163776982   12.01097317909441   11.85618272917291
C         9.21807523125307   10.08483739346376   12.20302411779546
C         9.64095939306775    8.79063980717358   11.51894000699707
C         9.18487843911235    6.47255153857251   11.49049296052564
C         9.18733247696033    6.27851905307690    9.97038721733208
C        10.42666643371397    6.88346764209378    8.05258704373193
C        11.66244781184461    7.69975999919098    7.66281248690289
C        12.34684114154894   10.35992113241634   10.15698675255809
C        11.54381615548732   11.51116443361469    9.93292753803431
C        11.69070944311989   12.58941056133244   10.84722409897424
C        12.54599469814389   12.52705531985509   11.90777861145749
C        13.32754015180488   11.37792574733201   12.13575180488364
C        13.22480462490918   10.32301621387380   11.26506761668361
C        12.29771194812072    9.21254439661569    9.32097405015197
C        14.94785933365830   10.31611712702977   13.51653582727030
H         9.82461497865649    7.45048228967789    4.01717554194787
H         8.57610144967878    7.77747812710210    1.90635162569757
H         7.14237065127227   11.52712273072108    3.34295831468976
H         7.56220287393858   12.26538084077611    5.39817511292177
H         6.92834689277241   11.78844597997767    1.01073471098640
H         5.51676096235488   10.96205059509633    1.73035955659151
H         5.92009941384383   10.71047208270734    0.01401982640632
H         9.28812582818333   13.13367153447290    8.14240173313104
H         7.84402456298559   13.40490127035591    7.13076705949712
H         8.12039841903068   11.24768548969798    9.28058619801953
H         6.62773064641743   11.64874837316423    8.38379932965963
H         6.02453943632634   11.83459615000175   10.83362295844149
H         6.37168149569560   13.46576447518837   11.47919605020214
H         8.80825948237969   12.64334041508289   11.78379647234889
H         7.57265593313524   12.00453727703293   12.90423986407133
H        10.08833237112439   10.75354546637129   12.27945493294209
H        10.66990437819742    8.53709764041712   11.81208820202807
H        10.19783123692184    6.25829341763254   11.86345632009973
H         8.47386271621342    5.78148611737075   11.94772065421861
H         9.03962488912729    5.21476074517153    9.72855908808185
H        10.45032243845936    5.90442038787862    7.55076533380099
H         9.52690508042348    7.42581066437414    7.72635974233939
H        12.55846713058959    7.17340493896428    8.01066847929054
H        11.68233468059730    7.79666261224757    6.57636228714289
H        11.09250199042625   13.47079690542418   10.67049196205855
H        12.64470682256249   13.35184337103231   12.59636323821433
H        13.81372624430400    9.42889325452392   11.40322564050806
H        12.95717567380972    8.40011144593815    9.63366771903444
H        15.65545359274344   10.12002686851389   12.70372150769941
H        14.34897289898591    9.41728729709371   13.70013069280594
H        15.50033080300984   10.56979476733259   14.41995412124188
H         8.84845071724955    9.86323485541216   13.21480411950491
H         9.61702002682069    8.95332306230523   10.43182195466210
H         8.35747123627118    6.85240287195129    9.53428105214100

