76
CSD_code = GIDLOW | q = 0 | S = 0 | Stoichiometry = C29H40N2O4Pt | MND = 4
Pt       14.06869638639800    3.05214974844649   10.36689808398201
O        13.15253954929382    2.14019523931096    8.79584621486294
O        14.96291281850290    3.96260020428569   11.95285195387889
O        10.73153186735685    1.59975015797320    4.76740163147194
O        16.32474968340209    4.78703938346598   16.30318033370278
N        13.59477742784886    4.86827267848802    9.63881339832698
N        14.36617864811009    1.24333328172341   11.21302528018265
C        12.37357195656846    4.11106587711628    7.65737026399615
C        12.54409985356236    2.70510630918821    7.81208421178367
C        11.99076796441382    1.85578368773723    6.82362078244973
C        11.29886783144770    2.35298125666659    5.74487016516888
C        11.13475949141935    3.74582330896935    5.60056501555010
C        11.65942462697063    4.58513087988063    6.53823213560025
C        12.87509922757040    5.06365659760879    8.58249218491423
C        10.82938983561971    0.19916522597972    4.85473215633127
C        14.02472125541283    6.04741857953637   10.36591172790776
C        15.50231429667976    6.33631372556471   10.07378074104481
C        15.70211040176442    6.95748099732426    8.69246326219294
C        17.12744069437554    6.80856457615936    8.15859383478326
C        17.56780696012921    5.35645241797341    7.95587999461877
C        16.58668501987235    4.54837089723147    7.10953123736181
C        17.10612725222719    3.15741895227079    6.75696185351198
C        17.24165638984457    2.25411667228379    7.98173898745857
C        17.38970073971077    0.79259460375258    7.56422855833439
C        17.60287239358109   -0.17525661834765    8.73009815052192
C        16.56131985956779   -0.05440712601409    9.84265378858953
C        15.12612284800354   -0.15140715887224    9.33163625509051
C        14.09900773652839    0.03793234802365   10.45360655570899
C        15.11765073598728    2.05115628962375   13.40033271683386
C        15.22552574302728    3.44246453251109   13.09931809202983
C        15.65388865934580    4.29996695509232   14.13282773370560
C        15.94214798521935    3.84282278281068   15.40208660946453
C        15.82633051303127    2.47260552552189   15.69094605791778
C        15.42838940682988    1.61604833607267   14.69958156943045
C        14.73000893617995    1.07873129866725   12.44180370920473
C        16.60394924899484    4.39136499381860   17.62405576087725
H        12.13635351450430    0.79726088105062    6.97162066289651
H        10.58999665771356    4.11312046420868    4.74676994252637
H        11.53122520166031    5.65287711601176    6.42736258530543
H        12.60256025636788    6.09572672828463    8.34402281167530
H        10.35831720191111   -0.17823668183631    5.76784773271731
H        11.87190570226629   -0.13256998395568    4.82148555015989
H        10.29853599183018   -0.18948452359146    3.98702540434813
H        13.90576078639443    5.85685998563850   11.43368909294058
H        13.41238365044293    6.91404393882187   10.08556473316869
H        15.89557078841407    7.00235164177994   10.84241811750811
H        16.03315447747190    5.38666508307704   10.15117942049820
H        15.45362289094971    8.02148074238659    8.73800570433279
H        15.01658607264971    6.49549947364393    7.98090397401241
H        17.82338772471671    7.29577690341218    8.84572058004563
H        17.18840361722168    7.33226885580151    7.20092506002374
H        18.54430628034067    5.36073499396557    7.46433373523787
H        17.69379094322460    4.87303646805300    8.92438384363163
H        16.37542347964173    5.09600615759751    6.18717828790157
H        15.64728860093577    4.42143782037753    7.65259500336057
H        16.39987736337908    2.69676145284567    6.06103775500687
H        18.06876118062875    3.23621703220321    6.24533624701673
H        18.10905630443003    2.55030600942734    8.57377210884203
H        16.34799524523860    2.38495012421402    8.60625130813826
H        18.24480068175048    0.70571952162138    6.88796265416831
H        16.50477655692328    0.49179470664512    7.00010960348235
H        18.58983884770618    0.00017750619695    9.16519004771297
H        17.59493639562709   -1.19493607031746    8.33585972761764
H        16.69397530484800    0.90379969167087   10.34879593246126
H        16.74171819356042   -0.84276887580939   10.57926523817680
H        14.95733729048970   -1.12493813003115    8.86664926375849
H        14.94470153251461    0.62256789906931    8.58901186868571
H        13.10547503675308    0.12097302212048   10.00595143772001
H        14.11659490153002   -0.83412546830227   11.12133096593899
H        15.74684896958350    5.35304100882788   13.91989105440349
H        16.04693584892881    2.08773636245944   16.67300066143768
H        15.34421088773920    0.56062546403556   14.92046364015176
H        14.76307009386786    0.05284726342423   12.82102832964987
H        17.44660495642006    3.69375959895055   17.66733990948317
H        15.73022965645766    3.93671604594653   18.10215244659237
H        16.86783666812800    5.30491235224319   18.15494654849847

