73
CSD_code = GIDMOX | q = 0 | S = 0 | Stoichiometry = C28H38N2O4Pt | MND = 4
Pt        8.95981827321226    1.65258213626467    3.68101005251845
O         8.85577488201368    3.54103804895000    2.96058648519754
O         8.94372625195555   -0.23687065243848    4.40755497772666
O         8.64504352855731    6.07870370555197    2.63244324235195
O         8.88163188019479   -2.78203617356196    4.75175424579977
N         8.84918404337250    0.90770062024771    1.81651925755508
N         8.99642676351876    2.39479180062094    5.55063130887590
C         8.56086177336730    3.03509936816651    0.63116406259541
C         8.66108720309955    3.90632011931761    1.74429015035056
C         8.53928335169878    5.31779690386386    1.49950143361424
C         8.33161740962090    5.79910895722838    0.23329125302053
C         8.23730988342028    4.91845070778696   -0.85407878070433
C         8.34927464906549    3.57345753455125   -0.65787756254930
C         8.67151819787116    1.62190704009187    0.75502180576404
C         8.53129244659809    7.47108873648605    2.50650402284159
C         8.99261625894125   -0.52248726379724    1.62710596707112
C        10.43306011286797   -0.96510060810093    1.90312664576547
C        11.44061575719619   -0.31880356004074    0.95808443620329
C        12.88781388246211   -0.56474093786171    1.38536408313959
C        13.23699339597755   -0.03413487686152    2.77866045914991
C        12.90789041874845    1.44504723717713    2.97043083205865
C        13.51583356363033    2.00214161764195    4.25703227120911
C        13.36587304437366    3.52690028684552    4.34444577540944
C        13.02395296247849    4.03250480846154    5.74726247907334
C        11.61589819773187    3.65108200522985    6.20854403069766
C        10.52498674333547    4.31042475435848    5.36977474713131
C         9.11784508498303    3.82755610101634    5.73611625105201
C         8.85744062615441    0.26183466132843    6.75433477379084
C         8.88385925354766   -0.60747681806441    5.63576357803580
C         8.84345257394187   -2.02212637900122    5.88968910657346
C         8.77049549383221   -2.50728027284819    7.16925902408710
C         8.73755827331476   -1.62782030644874    8.26130386350081
C         8.78097515611767   -0.28015924122012    8.05688117348054
C         8.91771685262342    1.67682671823057    6.62162623665839
C         8.86412504491448   -4.17785411778263    4.88845032759315
H         8.23658150526574    6.85831466311899    0.05192593716025
H         8.07463257642007    5.31992588407420   -1.84228502324465
H         8.27605851996669    2.89363777027260   -1.49455288978996
H         8.59460596346245    1.09174447629087   -0.19850030166649
H         7.55317679994670    7.76282439907631    2.10820207275705
H         9.31860634215942    7.88484010567022    1.86671762795426
H         8.64149425176967    7.86940623029725    3.51420632227664
H         8.70626235973289   -0.79787902022631    0.60351105998155
H         8.33990932091617   -1.03649547484157    2.33608711034056
H        10.48310467850010   -2.05178350824930    1.82109822440949
H        10.66012784183267   -0.69408753658638    2.93281616692059
H        11.26241792724852    0.75681815819648    0.91523769539345
H        11.30135645370372   -0.71488047930070   -0.05212259602779
H        13.09166430544766   -1.63829290259337    1.36124371128371
H        13.54651472822491   -0.08856344825364    0.65428717546765
H        12.72459506297855   -0.62114908266648    3.54220760738378
H        14.31063132792687   -0.17831431049372    2.93018338969601
H        13.29000340910488    2.01065770109167    2.11665315268986
H        11.81852452375536    1.58590931666890    3.01581103952705
H        14.57426042458976    1.73484533198801    4.30595412954118
H        13.02607667321762    1.52446026168773    5.10630713241168
H        14.29479254603784    4.00099913621091    4.02020150351773
H        12.58762228503739    3.85024646162698    3.65330483826972
H        13.11524054214143    5.12152162149040    5.76096769331101
H        13.75164108447336    3.63132902943448    6.45714982943565
H        11.49974912933028    2.56701906434340    6.15481975381040
H        11.49712857436127    3.94458412388598    7.25557781021418
H        10.67498706533157    4.08435806924486    4.31523423273345
H        10.55963298845929    5.39413311319360    5.49286644887617
H         8.89242653017319    4.09226959983642    6.77774292217903
H         8.40773508801025    4.32844405334508    5.07437907047123
H         8.73654176557660   -3.56890217158559    7.35808092268618
H         8.67886861226752   -2.03253745961613    9.25978404793837
H         8.75868637498165    0.39881154150344    8.89717198934459
H         8.90232670514935    2.20586130013510    7.57880661062220
H         8.90992923459681   -4.57522521370885    3.87540156625030
H         7.94433722394916   -4.52632839665315    5.37112392359436
H         9.72819601921414   -4.53879506930400    5.45732607563705

