48
CSD_code = GIDPAM | q = 0 | S = 0 | Stoichiometry = C8H26B9Br2RhS2 | MND = 8
Rh        2.39417456014075    1.92259336499657    2.97075588490291
Br        1.93336873572365   -0.07500758633191    4.64237245894375
Br        3.06463334803847    3.26259707674557    4.99987759392214
S         5.57167835569425    2.56662842344901    3.46258474290902
S         0.26778893653830    2.37940298527316    3.99174677242596
C         1.41351531203540   -0.34660433888113    1.11572591430076
H         1.77939879796371   -1.18355198356801    0.52095684344031
H         0.42394876065198   -0.08862034655768    0.74080846942849
H         1.30025625333068   -0.69758743211583    2.14102654145437
B         3.96959203998284    2.22747819713632   -0.84237927672265
H         4.41383275864632    2.33134092786949   -1.92477720261149
B         3.63946793490310    0.63932723848529   -0.13578108361485
H         3.79444107075559   -0.44859803139546   -0.54700971000325
C         4.31613330023376   -0.41146437613906    2.30703823894727
H         5.17656608611480   -0.82421967715491    1.77861860221159
H         3.56174189244477   -1.19261390419051    2.36992092873767
H         4.62601760614306   -0.18626464602526    3.32914434531984
B         4.92033704558701    1.60850064509124    0.51403522936678
H         6.01384000244691    1.17790596302283    0.48931431297277
C         7.20901928629425    2.12582480657331    2.76637004933622
H         7.95941845008890    2.42400878295954    3.49137159802894
H         7.37572727912824    2.62476315815199    1.81878399167999
H         7.24614576141959    1.05008042182878    2.63800169611152
B         4.42380298824063    3.30699964134904    0.49671490954667
H         5.19391473425540    4.19063445837623    0.36337607791058
C         5.85833975808410    4.35631879266047    3.45116336613536
H         6.66574785741685    4.56807602861323    4.14425367484584
H         4.95283830009202    4.84374458047602    3.79339543707132
H         6.11047602560588    4.68099003198220    2.44809906394486
C        -0.29977308117968    4.04397844520027    3.54553786769490
H        -1.24975109282354    4.22195208618305    4.04182673508238
H        -0.40228491331936    4.14579126973665    2.47031441210342
H         0.44415028854967    4.74079098318667    3.91785785959162
B         2.76688755529542    3.34957819498753   -0.17559955771159
H         2.34783079517494    4.26190768695818   -0.78831285675089
B         2.31168744607726    1.67433663431820   -0.53604026724606
H         1.49924168310362    1.32790592180889   -1.31100455709484
C        -1.07839594616761    1.43125042298930    3.23381461534851
H        -2.00482433183180    1.70694322438456    3.73001783685736
H        -0.87119507679675    0.38003928305901    3.40869007862094
H        -1.14492838784442    1.63513043932043    2.16929549479378
C         2.33079010948135    0.86205601923362    0.99942622705964
C         3.79042424787373    0.82538477960376    1.59079092090736
B         4.30183917254488    2.37505442193850    1.98318980362958
B         2.99868965548651    3.52662336776215    1.58329134266603
H         2.83463008672022    4.59034588787779    2.06755061219135
B         1.72619454744176    2.44899495584405    0.94783341183711
H         0.55622400411488    2.61665277281985    0.96841054983718

