92
CSD_code = GIDSAN | q = 0 | S = 0 | Stoichiometry = C45H38Cl2N3OP2Re | MND = 6
Re        0.08847203149847    0.27899496830221    4.10049094206195
P         2.14677995223193    1.57505346554131    4.44279743843561
P        -1.77031125327229   -1.22946632275138    3.63122400758015
Cl        1.22348703218136   -1.52938742232383    5.14187986401795
Cl        0.83659850748045   -0.31816539521308    1.99290921662065
O        -0.56870733020428    3.55311710748415    6.43823420985958
N        -0.54757051607646    0.88030592083588    5.63489553159730
N        -0.91790231524184    1.32105702425562    6.69255590012941
N        -0.76720299192277    1.76971800948943    3.07599377605577
C        -1.10483432185089    2.52181571399630    2.27387606761586
C        -1.54243518398601    3.46768534670607    1.29375157725861
C         3.77606711088630    0.80699643630243    4.19399467672532
C         3.92344625077272   -0.39487313678472    3.51491650963780
C         5.18482749686031   -0.93699547178817    3.33864531223023
C         6.29915406748157   -0.28228824808809    3.83331400161949
C         6.15494525724873    0.92127545435869    4.50689075749065
C         4.89911308024712    1.46599476141044    4.69095591024459
C         2.18809595063734    3.03682754041095    3.37287676833129
C         1.25453419117718    4.04725294316556    3.60547547883462
C         1.19507963879769    5.13509008994117    2.75491364348997
C         2.04200608507304    5.21139600452893    1.65873392574299
C         2.95051905747664    4.19541049806464    1.41276506173265
C         3.02484749801521    3.10731957905285    2.26519351727373
C         2.29492184709397    2.21072486027000    6.14224265433289
C         2.57750520023294    3.53479912116446    6.45325707579477
C         2.62294610103819    3.93620300823031    7.77670379921129
C         2.39280631275826    3.02494112191378    8.79296280058330
C         2.13573317879295    1.69845847553062    8.48678275651038
C         2.08934382677874    1.29008564609974    7.16751007654473
C        -2.85800824348421   -0.53590361449546    2.35562623750327
C        -2.87046470073326   -1.01859839640348    1.05248440762501
C        -3.63703751468527   -0.38544083065018    0.08916355080106
C        -4.38616106506979    0.73216705938432    0.41722470828878
C        -4.35949968605239    1.23006622600984    1.71187050671814
C        -3.59042781408794    0.60682275859303    2.67526378104071
C        -2.85225302645388   -1.49193598968814    5.07244276890101
C        -2.21426947115981   -1.72816423887960    6.28776874674780
C        -2.96002452425005   -1.95417447954036    7.42906690270225
C        -4.34432626472308   -1.94719048090751    7.36621004467245
C        -4.98084243376138   -1.72061016113069    6.15747785625378
C        -4.24068793206872   -1.49491522036889    5.01006315804787
C        -1.49799327897906   -2.93797176074757    3.07025853321490
C        -0.23048857305440   -3.43885212697905    2.80908153619322
C        -0.08315681047579   -4.74440472196255    2.37154626257310
C        -1.19401104338767   -5.54968634694268    2.19420166036184
C        -2.46156747625163   -5.05212828475849    2.45869708559644
C        -2.61661010986199   -3.75232187551909    2.89767372985129
C        -0.84669029386386    2.61220308433484    7.16491585156376
C        -1.10604794791957    2.70770587604979    8.61147532240123
C        -0.89101677450748    3.92526368623421    9.25359205089511
C        -1.07955787194666    4.03239184256972   10.61769349190312
C        -1.48759521189643    2.92825163537826   11.34921144287725
C        -1.70916696019658    1.71589960774610   10.71328526392976
C        -1.51743423607471    1.60090862586808    9.35014384530613
H        -2.09035774644696    4.26908724343718    1.78797634811319
H        -2.19343621346832    2.97327568905191    0.57197728580542
H        -0.67615095875330    3.88712042226163    0.78149997831031
H         3.05572263429653   -0.90451245378875    3.12522428644987
H         5.29606558191536   -1.87466811429041    2.81456101614229
H         7.28258800823483   -0.70814414993369    3.69677829313483
H         7.02454671664162    1.43382245030817    4.89239885026791
H         4.78252596035141    2.40154783584705    5.22121249876963
H         0.58630075420016    3.97003206701050    4.45364719505221
H         0.48307553877687    5.92580831751743    2.94421790456474
H         1.99047103880151    6.06162171157402    0.99334706001209
H         3.60296465573269    4.24937079947200    0.55324960926101
H         3.72935151393176    2.31053802906641    2.07137047362665
H         2.74961136742251    4.25550389683052    5.66682370912890
H         2.83102043437060    4.96964985283620    8.01358633679611
H         2.40991550557978    3.34826418188593    9.82357292672957
H         1.95841802605909    0.98493469436163    9.27780279400985
H         1.87776908170307    0.25779242182442    6.91900751048395
H        -2.27783076625850   -1.88474039174677    0.79406744401042
H        -3.64771086471838   -0.76481292121003   -0.92225237879297
H        -4.98689719280712    1.22033572623747   -0.33676947273082
H        -4.93617228951143    2.10796259647014    1.96653057006564
H        -3.54363437175615    0.99777088110346    3.68406633952195
H        -1.13245821278738   -1.72894623873860    6.32658203288991
H        -2.46168018251897   -2.13628003422947    8.36983154889286
H        -4.92877764824908   -2.11828892240841    8.25840581467754
H        -6.06024902400465   -1.71856900507792    6.10635057154073
H        -4.74677109681198   -1.31196429717799    4.07182601732490
H         0.63792697656732   -2.81435731220896    2.94934156157071
H         0.90456674610639   -5.13151275147371    2.16979116329977
H        -1.07703170441586   -6.56754266695447    1.85139642199777
H        -3.32976844321485   -5.68090876119744    2.32259553395192
H        -3.60377515747761   -3.36277081294296    3.10713179765864
H        -0.56880884664036    4.76952628214235    8.66304439782732
H        -0.90752010569530    4.97549164499657   11.11540550401586
H        -1.63263062084230    3.01152567853227   12.41644340948890
H        -2.02893290004126    0.85885930822530   11.28769817168611
H        -1.68117269136450    0.66304812896878    8.84147747096688

