88
CSD_code = GIDSOB | q = 0 | S = 0 | Stoichiometry = C41H36Cl2N3O3P2Re | MND = 6
Re        0.95995981465587    3.97812858690126    3.30557276791392
P        -0.19693522384586    4.58420931226041    1.21451776687448
P         1.75303045093673    3.11817641931761    5.47533119672072
C         0.72952781984772    4.52830041055270   -0.35060262042603
C         0.10738100651964    4.93516761272154   -1.52876622419604
C         0.81234279674812    4.92915859759460   -2.71655440258072
C         2.13971250298319    4.52683013243087   -2.73562217805007
C         2.76039615009252    4.12667791738925   -1.56503097511335
C         2.05906123118424    4.12744246803605   -0.37097547595629
C        -0.85135208928039    6.27934794757255    1.12978795512057
C        -2.11906100160643    6.59005851472423    0.65365328574764
C        -2.51422534614782    7.91379668984741    0.56759002832182
C        -1.65174983061277    8.92795230678374    0.94753211172361
C        -0.38420448171394    8.61979577813626    1.41523045324887
C         0.01500372587614    7.30089684152437    1.50392232061819
C        -1.64552559682119    3.53182313513369    0.94476491500569
C        -2.71871317556729    3.67172148105262    1.82563860065997
C        -3.82676518133331    2.85633546774305    1.69626445811304
C        -3.86457191326791    1.89105235905502    0.70151077843374
C        -2.78739110894580    1.73184220514002   -0.15502808935164
C        -1.67280607842925    2.54377134185446   -0.03236686357905
C         1.52389312222916    4.22003582353384    6.90227470223909
C         1.79186465691236    5.56745732398409    6.68451611691970
C         1.70150119222243    6.47119218361341    7.72537748836340
C         1.35006358422940    6.03143532248207    8.99127200716753
C         1.09482799564476    4.68831609794206    9.21374856277452
C         1.18282824223855    3.77872411754532    8.17494695685885
C         0.87700439248696    1.58809038970969    5.88641324921876
C        -0.41842258588639    1.66149632535960    6.39682326764300
C        -1.12862359115986    0.50077742057529    6.64154689103248
C        -0.56447621165453   -0.73196901837783    6.35322106983627
C         0.70520431326081   -0.80428749046890    5.80280091238579
C         1.42610355485499    0.35148730103517    5.56161512542612
C         3.51062559923608    2.70253766664894    5.70773290711779
C         3.89754546786170    1.99859519058920    6.84512357048414
C         5.23347170089433    1.72434018458150    7.06505478466499
C         6.19103819176968    2.15753569356487    6.16067003006452
C         5.80978614949799    2.86599860850278    5.03442972799236
C         4.47232378647756    3.14109038352072    4.80824573775960
N         2.30436424587610    5.12830122558299    3.03056349038125
N         3.28246555324174    5.86124520603549    2.74600003426787
C         4.34709573650618    6.08740453684127    2.22608968770851
O         5.33378469087006    6.61133175303057    1.88591135937179
O         2.37197855685101    8.06785341027445    4.53950482050894
C         2.44322652015581    8.15528579688221    3.41429465459492
O        -0.38201499574927    2.73042318228733    3.51564783575453
N        -1.48867118991906    0.78939361542438    3.22642018431857
C        -1.36756954422003    2.00421755288198    3.73197414390626
C        -2.66665743863446    0.01340064652224    3.51725572398025
C        -0.51385122826856    0.13318666676957    2.36982200316737
Cl       -0.48301695192688    5.61959976980089    4.29063651534184
Cl        2.37204993963970    2.14220007832685    2.46055559579658
H        -0.92568044446498    5.25501662997186   -1.50880591430219
H         0.32829759379350    5.24160528624811   -3.63043790059293
H         2.68756632911020    4.52691884883004   -3.66642981030379
H         3.79280321603619    3.81133133546188   -1.57828788395799
H         2.53156906983451    3.79693528257830    0.54304399801803
H        -2.80291379422469    5.80584791912521    0.35886716949173
H        -3.50340523939769    8.15198680118569    0.20367887326394
H        -1.97007080741861    9.95800693790497    0.88283042098147
H         0.29401440860367    9.40383559665277    1.71666700196741
H         0.99696150955507    7.05334834828926    1.88643589355681
H        -2.67050893788835    4.42116959855449    2.60573609288089
H        -4.66009030535940    2.96943962246635    2.37376085777915
H        -4.73399179323993    1.25772781616703    0.59773129204418
H        -2.81317994193030    0.96997030731480   -0.92117341539568
H        -0.82484441964219    2.41415171516795   -0.69036754784954
H         2.04922474716768    5.89344005672002    5.68573417711080
H         1.89780146875682    7.51779465994294    7.54882338351244
H         1.27195061155591    6.73553191470224    9.80666983206794
H         0.82305384977584    4.34567945499213   10.20189964106826
H         0.97695708775782    2.73276693003769    8.35713770817025
H        -0.86059336019374    2.62868620492227    6.59695258105875
H        -2.12713953831494    0.55799720433272    7.04941070108119
H        -1.12020957499932   -1.63798626035136    6.54907648765936
H         1.13519933582339   -1.76450460312808    5.55654198815350
H         2.40832979931806    0.30299567525993    5.11271471635570
H         3.15122066949283    1.66250464444118    7.55186654887045
H         5.53021080624613    1.17155997981317    7.94455314004640
H         7.23423269790259    1.93991793748599    6.33600465920611
H         6.55292185432044    3.20347059050221    4.32758465294922
H         4.16628304808871    3.67319256531228    3.92018317305678
H        -3.32892332053790    0.59646359195610    4.15249814688001
H        -2.39183133927427   -0.91113838643124    4.03156983643274
H        -3.18648352372675   -0.24281640447640    2.59053298393013
H        -0.19658311534858   -0.80623684953635    2.82679616384281
H         0.35805611675069    0.77338312868069    2.23985455321336
H        -0.95666269204474   -0.07477657122156    1.39338683170413

