37
CSD_code = GIDTUI | q = 0 | S = 0 | Stoichiometry = C18H14CrO4 | MND = 9
Cr       -0.32581284833817    0.97539855478461    3.45606995110157
C        -0.72262574856214    2.60235289519083    4.16173143579627
O        -1.04024916994340    3.63518432492457    4.57684032920615
C        -1.82376301501878    0.49521184832685    4.37466788485791
O        -2.81184479849240    0.26343502008520    4.92886963039120
C        -1.59029011453872    1.56938788446942    2.29276812430731
O        -2.43720113024388    1.99085490617672    1.62721714978500
C         1.62568229775309    1.12641245145644    2.28253626683405
C         0.92977524756488   -0.04127873034720    1.90506182105894
C         0.59131610392314   -1.02834504890992    2.83300732551228
C         0.88702511794928   -0.81349403564795    4.18665210316644
C         1.55393222215090    0.34737123235737    4.57582192612803
C         1.92471879405032    1.34347254312385    3.63896097819304
C         2.70843074541426    2.49706404074744    4.23036810031509
C         3.05697625205966    3.69272459130070    3.33613775703253
C         1.85032285412629    4.19876674105184    2.60389662295288
C         1.23286787241226    5.38622138946308    2.96465558857814
C         0.08934449265825    5.81450581563738    2.31434591887147
C        -0.45035151101759    5.05263002162132    1.29441625612775
C         0.16061084231496    3.86967572382664    0.91876506292245
C         1.31048252803955    3.44212248991701    1.56511191633570
C         1.97224437688612    2.12906046347035    1.19795740737248
O         1.55769957689288    1.62747989041205   -0.05331135498181
H         0.76050379617743   -0.21029897163685    0.84955324825764
H         0.14642298140216   -1.95957263105957    2.50648539952286
H         0.67510015531249   -1.58448634585270    4.91852776589120
H         1.85270770424253    0.47111305519060    5.61071704610753
H         3.64126534089062    2.09303778509789    4.64261048104298
H         2.12248965508552    2.87556232045544    5.07481520171456
H         3.84663606166302    3.41822273700622    2.63176607439771
H         3.45579156476011    4.48231039195181    3.97627388476833
H         1.64698272938978    5.97587412743094    3.76958353446354
H        -0.38594053190380    6.73593328950392    2.61354881216335
H        -1.35161012748513    5.37083510318228    0.79428659541301
H        -0.27308743532473    3.26759537466707    0.13433232526362
H         3.06953371184175    2.26276912398781    1.16872946305237
H         1.60901340590200    2.34268962663857   -0.69587803392320

