45
CSD_code = GIDYOH | q = 0 | S = 0 | Stoichiometry = C14H20N4PdS6 | MND = 4
Pd       10.13473726790426    0.00000000000016    2.49980384268250
S        10.85922145354919    1.67788293406962    3.93119287075176
S        13.17020903273868   -0.00000000000036    8.53043967164733
N        12.05791472217279    1.10398731469259    6.34107646100275
C        11.48157484631031    0.69819770571314    5.16958695668078
C        12.42874216250108   -0.00000000000008    7.05874247216414
C        12.29851012311780    2.47134755168098    6.73001987329737
C        13.56121281824180    3.01456323265361    6.07123792612211
S         9.41272767652856    1.67803359654714    1.06739905794044
S         7.13768596678471   -0.00000000000001   -3.54949662889585
N         8.23265489381716    1.10398016030581   -1.35150776717057
C         8.79975113183067    0.69823339882436   -0.17556116341664
C         7.86743344607726   -0.00000000000000   -2.07202542896287
C         7.99505803652795    2.47110470499700   -1.74301465329055
C         6.71669717718019    3.00838594084884   -1.10996559125173
H        12.39849142247450    2.48529898098582    7.81792662471397
H         7.91761688957390    2.48721338108428   -2.83274031910651
H         8.85681891470356    3.06308322849389   -1.42433175924063
H        11.42810850717560    3.06096485824311    6.43090054390051
H         6.56486760997393    4.03969939419256   -1.41335359984690
H        13.71510712249134    4.04609620597959    6.37282041051466
H         5.86196444726113    2.41926301417779   -1.43343991401236
H        14.42493264927104    2.42841803066710    6.37567959199471
H        13.46947777904940    2.97619362908835    4.98837316054912
H         6.78588784074717    2.96881700415920   -0.02548067445051
N        12.05791472217183   -1.10398731469263    6.34107646100315
C        11.48157484630808   -0.69819770571309    5.16958695668193
S        10.85922145354637   -1.67788293406954    3.93119287075323
N         8.23265489381770   -1.10398016030585   -1.35150776717083
C         8.79975113183202   -0.69823339882443   -0.17556116341721
S         9.41272767653026   -1.67803359654719    1.06739905793972
C         7.99505803652828   -2.47110470499701   -1.74301465329083
C         6.71669717718056   -3.00838594084883   -1.10996559125185
H         6.56486760997422   -4.03969939419253   -1.41335359984705
H         5.86196444726147   -2.41926301417775   -1.43343991401239
H         6.78588784074761   -2.96881700415923   -0.02548067445062
H         7.91761688957402   -2.48721338108422   -2.83274031910677
H         8.85681891470393   -3.06308322849396   -1.42433175924109
C        12.29851012311748   -2.47134755168103    6.73001987329770
C        13.56121281824146   -3.01456323265347    6.07123792612209
H        13.71510712249123   -4.04609620597943    6.37282041051463
H        14.42493264927069   -2.42841803066683    6.37567959199452
H        13.46947777904883   -2.97619362908824    4.98837316054912
H        12.39849142247461   -2.48529898098584    7.81792662471428
H        11.42810850717524   -3.06096485824332    6.43090054390118

