78
CSD_code = GIDYOK | q = 0 | S = 0 | Stoichiometry = C24H49IrN2P2 | MND = 4
C         2.33143151828750   13.93558937816911    8.98398085571247
H         2.96972545722606   14.80827486448876    8.81912302836580
C         1.07175415998455   13.91793281277435    8.49322505858559
H         0.66140592019387   14.76133422072445    7.96059748778775
C        -1.35534014660202   13.12801392935937    9.79765910544352
C        -2.22560771130623   14.11391678303852    9.02582592120422
H        -1.62461084169868   14.89288684030641    8.56207140436744
H        -2.92327605491726   14.59403288850965    9.71244586512743
H        -2.81081111811139   13.61079988368635    8.25936167329214
C        -2.19762083174033   11.98148836328314   10.34527242821287
H        -2.75478525989497   11.47881562682135    9.55948783789321
H        -2.91313045327670   12.35856728790668   11.07537127069624
H        -1.54326317724645   11.26220483745674   10.83556940896345
C        -0.69441477052329   13.83654268804787   10.98348897250783
H         0.00084285263925   13.15342334305426   11.47530003444841
H        -1.44482230228314   14.14699475400174   11.70907169173567
H        -0.14195774896755   14.71585387185871   10.65784095743719
C        -0.35684500897521   11.90546523861456    7.06254746433939
C         0.91722681120276   11.22284987355460    6.55525050314824
H         0.77789897270100   10.84669737121496    5.54239529322627
H         1.19086708755725   10.39207943996269    7.20386368718047
H         1.74583075432276   11.93026132699501    6.55043171269127
C        -0.68987134973457   13.06203642099971    6.12163932531211
H        -0.91832064339863   12.66071007311394    5.13390959865442
H         0.15630553031005   13.73608891693568    6.01802091840389
H        -1.55148194296229   13.62963087181078    6.45854277133397
C        -1.50765660323277   10.90588662343546    7.07384898718833
H        -1.61216285223039   10.44310704535874    6.09223259314532
H        -2.44960059602636   11.39286490975992    7.31617409030928
H        -1.31924253636379   10.12192101892099    7.80255631991123
C         4.10717411258676   13.01224018812432   10.12036652281068
H         4.65129440153517   13.93397618837839    9.89561225993648
C         4.71002671580505   12.02609053797080   10.82179623470185
H         5.71600943992307   12.13297869304120   11.19595969031680
C         4.82601745915673    9.21063991123438   10.37859378210315
C         4.54694343411034    9.33651819379604    8.87763744713193
H         4.83128891898294   10.32724965996812    8.52460156291110
H         3.48618221418987    9.20042806745804    8.67258345182661
H         5.11162637247118    8.59383969588037    8.31520086925632
C         6.32240686104288    9.41555026379542   10.60817955158135
H         6.86977584092072    8.61087747247268   10.11648935417236
H         6.58149702435868    9.39984687875696   11.66205911314663
H         6.65747023929357   10.35561591298469   10.17792829007952
C         4.41766786716701    7.82464079319809   10.86428297754443
H         3.34129318472708    7.69849736264010   10.78303701148945
H         4.71352367257641    7.66718552340028   11.89908090341753
H         4.89915558423705    7.05753589531095   10.25734842560904
C         3.69008757926352   10.50388753224024   13.02619543979848
C         5.05429925544336   10.32650055350250   13.68388921234668
H         5.43769330351961    9.31934568147125   13.53658925851308
H         4.96161389372064   10.49114248141008   14.75767060407011
H         5.77568590029354   11.04302815592617   13.29755713391266
C         2.72290231563811    9.42241645043027   13.49398473066014
H         1.77939151477802    9.53485233882278   12.96191040203041
H         2.53663473529858    9.52404628122275   14.56270807704492
H         3.11586558848098    8.42515807478629   13.31613715320136
C         3.10047457088925   11.86351303841174   13.41191084993681
H         3.78792736997781   12.67243443009268   13.17211866543653
H         2.88382142614794   11.89674798760267   14.47864354123072
H         2.17003786047817   12.02625125527200   12.86447917976761
C         0.09825233280772    8.56868119745782   10.44295680808952
C        -1.44482819866858    8.56523699520893   10.35665762425730
H        -1.78549544863286    9.21138006717482    9.55545368731211
H        -1.86944583764761    8.91739671250071   11.29234151583786
H        -1.79813321849530    7.55455052669699   10.16587315658120
C         0.45679350854004    7.57653794578475   11.57240022744259
H         0.04428740098376    6.59678340438969   11.34298544198901
H         0.04293828976210    7.92239599574463   12.51522873994611
H         1.53220661994221    7.48696101559994   11.67696806843597
C         0.66510690885721    8.02584580643789    9.11491031956191
H         0.38654994714291    8.67952981045758    8.29340274317133
H         0.27583982643599    7.02951411707743    8.91430838936020
H         1.74883316544634    7.97201363515120    9.16407260073757
N         2.84478062149000   12.90485717088035    9.67501565770278
N         0.53170168495218    9.87004795130245   10.82322606677412
P         0.12727742450269   12.44522844843369    8.82360687160627
P         3.72646674068321   10.57366698768214   11.12700161028309
Ir        1.61791245995076   11.15256520825652   10.16823250830076

