67
CSD_code = GIFBUU | q = 0 | S = 0 | Stoichiometry = C24H30Br2N6NiO2S2 | MND = 6
Ni       -2.65816419737760    0.00004160465129   16.08802582041091
Br        0.67326372789290   -3.80046833471367   17.23667120894914
O        -0.84877695827925   -1.44523702676976   16.44000786046592
S        -2.86680076272919    3.17801192341872   19.09651539771209
C         0.71319915281611   -0.26281423740213   15.08537059725373
C         0.28627269992516   -1.36658587289019   15.88384015966333
C         1.24274964205245   -2.40325165883066   16.06919272452292
C         2.47182848742865   -2.42655337070120   15.47840813794510
H         3.14821343787759   -3.25290127539663   15.64070975469751
C         2.84509866664777   -1.35467098737797   14.66160377899256
H         3.81165669928445   -1.36348797889408   14.18345834821686
C         1.98813491283886   -0.29777177660302   14.49231930555766
H         2.29201353019185    0.53994842066289   13.87935385670264
C        -0.07717894079954    0.91111875611650   14.91972669560804
H         0.46953267628001    1.72157961374277   14.41929954268316
C        -1.76356978361963    2.50552564449678   14.97514710287635
H        -0.94567793449498    3.23231512046710   15.06226267989167
H        -2.54247664193673    2.77423641702695   15.69157134554164
C        -2.33645225663204    2.59728817317770   13.55466712445816
H        -2.65410090610319    3.62666524881361   13.36804681920380
H        -1.57503032823355    2.31883002135394   12.81819119815926
C        -4.26474305789357    1.84706536842536   12.17984813099219
H        -3.60598172235165    1.67444503439882   11.32370443479888
H        -4.65883817225719    2.86545671455890   12.12228342729346
C        -5.40304518208238    0.84132943557675   12.18225352458672
H        -5.01840738887409   -0.17199995558996   12.26899141845446
H        -5.97445573168748    0.91803470728989   11.26241097308348
H        -6.07169932258481    1.03046076105432   13.01753236140585
C        -2.63117740765691    1.82270333664017   18.32518173245141
N        -1.28602297963588    1.16584771163052   15.28542342096525
N        -3.49462350906687    1.71133663518963   13.41769361149581
H        -4.11329649656987    1.84518912271205   14.29588490423593
H        -3.19484842062067    0.69980093010084   13.57928147110865
N        -2.41538731459201    0.76559805873055   17.83632005843840
Br       -5.98977116433414    3.80061846452488   14.93963863438861
O        -4.46752344911793    1.44549089758670   15.73641165751826
S        -2.44395147427091   -3.17625595311905   13.07838530188594
C        -6.02971226768268    0.26261472742217   17.09040319220951
C        -5.60268037701435    1.36664170835923   16.29234442778236
C        -6.55938709545009    2.40303637299178   16.10662510942526
C        -7.78865630605438    2.42602580208092   16.69703496797409
H        -8.46505265530564    3.25237441647692   16.53480236408236
C        -8.16191365423401    1.35405301184268   17.51372355028162
H        -9.12859647756328    1.36265757689430   17.99162014463785
C        -7.30481781183594    0.29727630198251   17.68310821921199
H        -7.60875237747779   -0.54060224579600   18.29582956706432
C        -5.23927325614215   -0.91129799926067   17.25594209868386
H        -5.78591642980892   -1.72178529097141   17.75640632092725
C        -3.55270055107357   -2.50549220700410   17.20083308721245
H        -4.37049652430754   -3.23236761217492   17.11353412247924
H        -2.77361460181540   -2.77410200690891   16.48456797499949
C        -2.98009045029527   -2.59723037854311   18.62142638151542
H        -2.66244423648031   -3.62659174363561   18.80813713219062
H        -3.74165405455804   -2.31876543794078   19.35775022568800
C        -1.05204997725264   -1.84691345061193   19.99658285434229
H        -1.71093301079782   -1.67414368244861   20.85260076830997
H        -0.65805439021448   -2.86533289189703   20.05431350420761
C         0.08634340463034   -0.84128102009522   19.99424572449521
H        -0.29817989034575    0.17207184560331   19.90727996539689
H         0.65757652479559   -0.91789464340615   20.91420632215628
H         0.75513458751831   -1.03060474720217   19.15912128870182
C        -2.68248209181883   -1.82178902377077   13.85020827556389
N        -4.03033437979178   -1.16586450017281   16.89045945460424
N        -1.82196518674838   -1.71124704344849   18.75859589432573
H        -1.20313195043686   -1.84514316078911   17.88057609672245
H        -2.12171757900053   -0.69973925324075   18.59692975403653
N        -2.90080906285610   -0.76550311840091   14.33975668814629

