37
CSD_code = GIFBON | q = 1 | S = 0 | Stoichiometry = C6H16O12S2Y(1+) | MND = 8
Y         3.67855559375076    3.75799336117919    3.26659673657499
C         1.84282458593862    1.84259665795683    0.46815089080362
S         2.56438610776591    3.46385390171247    0.64318889368223
O         1.92780626977490    4.12443019242984    1.81299318734618
O         3.99558370239035    3.31448378188656    1.02178428452728
O         2.39991238968300    4.20498013461812   -0.57014905852267
C         1.81458034065747    0.91311188505665    1.49142847346339
S         2.53114038274149    1.18555476549556    3.10539081760929
O         3.96219932735057    1.56139622837762    2.92204175110425
O         2.35491553052564    0.01050051390184    3.89796467319748
O         1.91290694208292    2.39571746340293    3.72039806957212
C         1.22375975583400   -0.32358910839200    1.28431298303127
C         0.65956788268069   -0.62955742716646    0.05470534445674
C         0.68815615077372    0.30353374842620   -0.97055680903538
C         1.27967975371119    1.54044225315460   -0.76133308487039
O         4.04014929741183    5.93307428825920    1.90445303611311
O         6.08412392366999    3.91313235973748    2.57984387349238
O         5.36195257628228    2.65166102419807    4.90060088331397
O         2.06266218689816    5.49833581492618    4.08659989871317
O         3.00075467583181    3.56327658977229    5.83456030770080
O         4.82230158894650    5.46306721017431    4.61793645944249
H         1.22195002466541   -1.02597106779655    2.10272321282728
H         0.20110981163929   -1.59388695485137   -0.09946918728600
H         0.25215696280735    0.07239137194766   -1.92990422937351
H         1.31885664556292    2.29258622735831   -1.53345129644930
H         4.02596633785441    5.58472565414688    0.99748382203438
H         3.29212556483159    6.54728546051979    1.94316553345831
H         6.02124059774423    3.34936515200616    1.79082457861082
H         6.36545233730752    4.78391833104806    2.26276471928998
H         6.27228725150591    2.92334815856945    4.71018606588109
H         5.26758832099571    1.76168038595118    4.51869570877239
H         1.38193625893975    5.30586720184954    3.41936288554209
H         1.65988401643593    5.28340408257725    4.94136532299674
H         3.63814882493757    3.06536635161446    6.36641090650760
H         2.29287142328094    2.93069083185044    5.61746259891665
H         4.63994127650029    6.38975171401539    4.40412175791590
H         4.67896538031934    5.37178146009500    5.57174598859385

