99
CSD_code = GIFCOO | q = 0 | S = 0 | Stoichiometry = C49H42N2NiO5 | MND = 4
Ni        8.20475314440106    5.20701981142406    4.68855168713729
C         9.71236764960703    4.13552017581660    5.28413688120272
H         9.62880744281509    3.95290261147681    6.36075268893090
H        10.63366503937496    4.71058563154806    5.11692956466098
H         9.83159319635035    3.16658192840847    4.79480287990111
N         7.49955626116664    3.93774086543583    3.41988393244784
N         8.71738933210892    6.54560900823146    5.91056354883164
C         9.46458882411584    7.57672885672957    5.52263252783985
H        10.16942934340311    7.39977848826913    4.71986512382759
C         9.37136138182633    8.82939322418603    6.10252447224232
H         9.99793377581354    9.63272623709829    5.74970496968853
C         8.44938853009402    9.03238191394809    7.11596136280402
H         8.33187735124108   10.00453595413043    7.56972076269772
C         7.68812469644216    7.95434861897696    7.53516202602906
H         6.96243908209499    8.05544552259436    8.32661555347884
C         7.86293300584755    6.72898550864757    6.91542728947290
H         7.30237156389350    5.86287479302891    7.24385608917868
O         6.99120515434468    6.58950223140720    4.05607500713867
C         6.69591633089893    4.25774645553501    2.44609506380716
H         6.36188113254371    3.44529917765108    1.79481782663825
C         6.14846716019208    5.52091171182908    2.11483821040554
C         6.33325870637155    6.64931673838272    2.96957495764004
C         5.71404156044099    7.88234990611610    2.58720580935441
C         4.98234723361179    7.96525533328574    1.43173040650708
H         4.53198863135430    8.91000216005514    1.15927684651661
C         4.81468766018176    6.85119148385575    0.59829558257957
H         4.23888100747842    6.94663507287228   -0.30941613341066
C         5.38230205839090    5.65489503259794    0.94107152929712
H         5.26266850357034    4.78971977337111    0.30338293591169
C         5.91959116606164    9.03514255197173    3.49328795462888
C         7.12853088659678    9.74301327454744    3.44815883316362
C         8.14592349475127    9.43330867652989    2.50918358153384
H         7.98006488436343    8.62014328902513    1.81787754229706
C         9.30211755486794   10.15051568523535    2.46476322137203
H        10.06418042690819    9.91353892809379    1.73643620907176
C         9.51475713705988   11.22430768157213    3.35409274901681
H        10.43702653192410   11.78477457573035    3.29429091557028
C         8.56448833027758   11.55142054534083    4.27160930628091
H         8.71595558308140   12.37610977049467    4.95468073298253
C         7.34710617101465   10.82769815351449    4.35320170109864
C         6.36547912006750   11.15010168248558    5.28447501008209
H         6.53532623739861   11.96735389872075    5.97278634461130
C         5.16487624729795   10.44990251778080    5.34225295233739
C         4.15682462541282   10.77413806453333    6.28604576917000
H         4.34298977125329   11.58738380003648    6.97377102980273
C         2.98331010087694   10.08684101623688    6.32404251047961
H         2.21979948792941   10.34251543800565    7.04442042340144
C         2.75045206353444    9.03065973187052    5.41877582105625
H         1.81097705088225    8.49837478536737    5.46153832232933
C         3.69481333847760    8.68567886884367    4.50076117840566
H         3.51639334246202    7.87545890711173    3.80883907427659
C         4.93165094394996    9.37688692785705    4.42658428041679
C         7.82084931083824    2.55956256656377    3.45718446142669
C         7.50824053575350    1.78976243689286    4.58735515960394
C         7.72786058581954    0.41521655549319    4.54116445798508
H         7.44961614722816   -0.18788761191761    5.39235398160017
C         8.26996536795749   -0.18659293400675    3.42193659077965
H         8.42411784724986   -1.25514081632490    3.40326287900623
C         8.63671702782579    0.58534699489462    2.33482688169369
H         9.10823591574510    0.12873539641006    1.47743713772511
C         8.41939671051992    1.95722822436670    2.33588647614101
C         8.84419605232355    2.78421653700289    1.18932185850068
C         8.55565295238541    2.39579175910672   -0.11357595015794
H         8.02992390586957    1.46894908121035   -0.27983962306520
C         8.91722662228400    3.22323604957029   -1.17212009323117
O         8.68805807722829    2.94222261370371   -2.48716843933095
C         8.06015054236319    1.72815474004357   -2.81526453737846
H         7.99882129212357    1.71223943495418   -3.90238389524810
H         7.04943319323286    1.66953508801035   -2.39737014377616
H         8.64380106849507    0.86644954194141   -2.47460392983584
C         9.53610696721342    4.44230966344320   -0.91955617578366
H         9.78057915621758    5.09435498940020   -1.74098292332243
C         9.82923749180298    4.82611290780290    0.38422721229394
O        10.40156695325603    6.05078167358863    0.54772570197206
C        10.59480049758797    6.51174195931874    1.86430414467801
H        10.92627781367869    7.54475732348802    1.77101869959924
H        11.36447840989853    5.92961379870963    2.38248508670883
H         9.66364645609504    6.47914678481115    2.44735240390497
C         9.51317524231001    3.97714023336796    1.43471275825989
H         9.75710516676678    4.23438076304966    2.45425346664392
C         7.03012671196198    2.40916389947435    5.83783927114775
C         7.58757840924674    1.96388866412886    7.03496799909070
H         8.35471146534217    1.20829026823775    6.99946773533955
C         7.18497253774060    2.51540869993668    8.24381623893011
O         7.66641129965768    2.14725283907045    9.46461079657490
C         8.63676265777539    1.13080644848639    9.52406782706835
H         8.86304787041247    1.00135765391802   10.58135230237751
H         9.55021611117458    1.41379008495320    8.99098438399785
H         8.25718303693682    0.18723655105989    9.11868483288720
C         6.22811200143186    3.52359575428809    8.25429164297104
H         5.91510830955238    3.95445776755373    9.19087795874779
C         5.66882852069493    3.97615780342406    7.06508388015413
O         4.74280246257454    4.96637962778001    7.19109078224491
C         4.29829076633656    5.61663566689748    6.02201620779376
H         3.69642851567368    6.45835985509831    6.36066650865121
H         3.68090482706814    4.95802340161393    5.40234433784044
H         5.14016488619428    5.99194518355656    5.43332554547739
C         6.06894164524952    3.41953083146144    5.84993727334032
H         5.56061139849767    3.69010024642205    4.93891596181880

