93
CSD_code = GIFCAB | q = 0 | S = 0 | Stoichiometry = C32H46Br2N10NiO2 | MND = 6
Ni        0.74497728399489   11.07580157806233    6.64942923361290
Br        1.43572842389140   14.50607610200113   10.50416297787345
N         0.70915150648552   12.41956711079473    5.20398766550834
N         2.61482264540560    9.67632977994755    3.52163221628262
H         2.23849666016563    9.33669188331363    2.63163777845440
H         1.81311866162681    9.43500502291706    4.28294520159182
N        -1.13309923845935   11.09355658194163    6.69753474203712
N        -1.91235978411915   11.90983071505595    6.40062225285159
N        -2.77919746389691   12.62077373419700    6.18180161704005
O         0.70692300966109   12.95895389460104    8.06764614491198
C         1.26528137821596   14.52213981439196    6.35272078403583
C         1.15480521372924   14.10235888087782    7.71142665986329
C         1.54950127779718   15.06143511218282    8.67775308024805
C         2.00704252003147   16.31680543215254    8.38191042884463
H         2.30076594758312   16.99461569498978    9.17006615037485
C         2.08230868878316   16.70546542016874    7.04735146164265
H         2.43196057397675   17.69419004768150    6.79613900913402
C         1.70914773784374   15.81900986975085    6.06467086500849
H         1.77182400315515   16.12165239253358    5.02825162573608
C         0.90729187627263   13.68321377505494    5.24278008022872
H         0.80523964976196   14.24536335787034    4.30468302514798
C         0.36594667483193   11.87155558119920    3.89682677079204
H        -0.43375202496297   12.47258216059447    3.44449332576063
H        -0.01051444210705   10.85900405190419    4.04093325286585
C         1.55996163544123   11.85596223437903    2.93001010432981
H         1.23756143832558   11.39434861799653    1.99359182265574
H         1.85437839265902   12.88425993526720    2.70939817888069
C         2.78971604445572   11.13786730239806    3.47542069678079
H         3.65307204679586   11.37940530676721    2.84954918868147
H         2.98066780034097   11.47558557858250    4.50057654329031
C         3.85451210542246    8.92645954886308    3.84314363312302
H         4.39277429855408    9.49114001529964    4.60997081199866
C         4.73275455728812    8.76690552212158    2.60467803279237
H         4.98241699116491    9.74038059628687    2.17780893172770
H         4.18888418488622    8.19247579503829    1.84954591870794
C         6.01950770495860    8.03020165692375    2.97128362171168
H         6.64318109445099    7.91620485704164    2.08292135670799
H         6.57604407568641    8.62129885972674    3.70097370277872
C         5.69967749749383    6.66412769062425    3.56820277963951
H         6.62421343196802    6.15905589116570    3.85088787993290
H         5.19721646613856    6.04835067246947    2.81830892117904
C         4.79807785912955    6.81827980560278    4.78775640713798
H         5.31266282472653    7.38633546675728    5.56438342199612
H         4.55058064706347    5.83774426208465    5.19663952802099
C         3.51372991076776    7.55460545116224    4.41833900893193
H         2.94991895967168    6.97310077330308    3.68546454136234
H         2.90899389621543    7.67411415848783    5.31684597697523
Br        0.05449995262961    7.64551776000445    2.79478282004715
N         0.78073534194356    9.73215828695633    8.09486709476612
N        -1.12490005474167   12.47519575794324    9.77740110672646
H        -0.74850267831434   12.81486605071431   10.66735418993165
H        -0.32338060313467   12.71656569074025    9.01602968783345
N         2.62302185548532   11.05821158774995    6.60125032699741
N         3.40253188983231   10.24288799080096    6.90011457555051
N         4.26865158929165    9.53034657511552    7.11645978736160
O         0.78290093629512    9.19267994559374    5.23121423804965
C         0.22445974964033    7.62959205561486    6.94619465772705
C         0.33501268532357    8.04928254953326    5.58747476873574
C        -0.05989379364520    7.09026463496895    4.62119425492436
C        -0.51760234431011    5.83496552169255    4.91709970759551
H        -0.81118556274252    5.15707815070075    4.12896075583097
C        -0.59284452913452    5.44634831324472    6.25166656038849
H        -0.94260863907616    4.45768002920215    6.50293336038023
C        -0.21959504869342    6.33280965369734    7.23430592317725
H        -0.28238027846599    6.03025917420416    8.27074173776798
C         0.58253093026565    8.46852258923511    8.05610645744002
H         0.68478037622248    7.90636105394162    8.99417066169170
C         1.12420434452091   10.28016531591007    9.40195979276302
H         1.92398006696232    9.67913245865513    9.85414506074815
H         1.50064580642439   11.29271534081132    9.25777999689384
C        -0.06963601494087   10.29579553815373   10.36899406214079
H         0.25288961950796   10.75767224439385   11.30524051116252
H        -0.36387074734902    9.26751401276034   10.58991358452086
C        -1.29956773806858   11.01363520776807    9.82364022161112
H        -2.16285341296769   10.77197484359672   10.44955704331658
H        -1.49051628805002   10.67587317990477    8.79850142646652
C        -2.36470083922745   13.22496341151498    9.45607176099706
H        -2.90297785168228   12.66031427908950    8.68923001111672
C        -3.24282047342691   13.38430213343561   10.69464933740948
H        -3.49233434603569   12.41076120468923   11.12145495473767
H        -2.69894582994629   13.95872514617948   11.44978526666761
C        -4.52969844596465   14.12087836798269   10.32822332979973
H        -5.15328396332444   14.23474185150046   11.21666504710339
H        -5.08624710478693   13.52976253783011    9.59855668098504
C        -4.21010240714279   15.48703590564926    9.73136522349208
H        -5.13473740333335   15.99197200977547    9.44875988527282
H        -3.70770899487407   16.10285171165086   10.48127300304450
C        -3.30855345093914   15.33312392345326    8.51174129652598
H        -3.82309889010983   14.76508695401067    7.73507375903687
H        -3.06119844529384   16.31373784217450    8.10295992385667
C        -2.02409621917256   14.59691451862214    8.88100212178584
H        -1.46029695280891   15.17841217168623    9.61389265313281
H        -1.41942043591230   14.47755652461350    7.98243401329827

