83
CSD_code = GIFDEG | q = 0 | S = 0 | Stoichiometry = C40H29F6N4NiO2P | MND = 4
Ni        2.88419495954544    4.03931069680785    2.68972433884351
P         2.90691949171693    5.35414547013018    4.44594745235684
O         4.65405225767769    4.23227018925044    2.24099596296754
N         2.79134859121706    3.12905420450692    1.04527965659014
O         1.09836850769136    3.81800089247876    3.03733080619676
F         2.40366269692393    2.58783279443288   -1.78367397837817
N         3.39397526398857    3.45671983707292    6.33321051714466
F        -1.90180649212765    4.29997930399388    2.13355044236407
F        -1.26283595407411    3.65383514952241    4.08351383179034
F        -1.88197178017943    2.20487169088180    2.61736945340539
F         2.79441358761924    0.78993843439082   -0.66259789066628
C         8.58141099513123    4.33235182151276    0.78399067702296
H         9.32676352326748    4.98534559042988    1.21432170858457
C         2.53257798035555    4.46110331083566    5.95742937229590
C         1.58215822158150    6.58742484377438    4.27398950357045
C         4.27057843007416    6.48052670152081    4.89305659139376
C         4.92444771849229    3.60525416917706    1.14540376665815
N         4.56208110422979    3.15820395213172    5.66901540451398
N         3.99190900350450    3.00416987533851    0.45048269668991
C         5.70756624453646    3.88783760227510    6.03632150489188
C         0.12731288006292    8.28115248899435    5.14933861291635
H        -0.24344345107836    8.85429743679493    5.98644704245750
F         0.79370718949541    1.27556554470222   -1.25614557351013
C         6.30981746777665    3.55779853333332    0.66648653116701
C         0.44641429321060    2.64163604480578    1.06848107108482
H        -0.38070453333545    2.19648153864936    0.54378706059781
C         0.23691178549390    3.26418099895495    2.27570463739895
C         4.50059458020737    2.26044507872567    4.60198017694421
C         1.08708693883346    6.83150711722418    2.99768582544709
H         1.48327757531358    6.26377321240120    2.15776396052041
C        -1.20163269700306    3.35005487929081    2.78399480508361
C         5.66159157306067    1.73107385870210    4.03469631457243
H         6.62749853656089    2.00659487091762    4.42749010809040
C         1.11816744438736    7.33699400881692    5.34854564971669
H         1.53245160541473    7.18270640210149    6.33356608654239
C         6.28314335077882    8.30097836247020    5.44177138821069
H         7.07159826341077    9.00608499037366    5.65892930707443
C         5.58299851362434    0.84984883245270    2.97406921172257
H         6.49480076490841    0.47502958347700    2.53348059072860
C         1.73814893515348    2.57258700728238    0.50109935846987
C         5.00579157238733    7.04085368625916    3.85516213892423
H         4.78672981214562    6.74287537166067    2.83822587897827
C         3.25576788728736    1.81498961391497    4.12758859221184
H         2.34199917817891    2.08193723316177    4.64548403866499
C         4.53782514074384    6.84293044102249    6.20693350215339
H         3.96592655465496    6.40903293407236    7.01510166316652
C         6.67007889152223    2.65755911166633   -0.33432404205167
H         5.91122358671991    2.01682862541814   -0.75346515775827
C         4.35584220584582    0.43659780487885    2.48103875584713
H         4.30133176202838   -0.24358902752032    1.64614383208852
C         7.27246381010834    4.39755045871139    1.22173728987560
H         6.98088641151864    5.10354254148724    1.98523412378941
C        -0.39059727777306    8.49439713119014    3.88165002317568
H        -1.17051350243663    9.22640299583797    3.73444030235657
C         5.54570895827621    7.75031364744294    6.47671164214940
H         5.75779066878433    8.02776819644169    7.49857656141790
C         6.01142681618447    7.94819666794255    4.12972008242238
H         6.58566993390064    8.38039091089022    3.32335892979237
C         7.67918286066955    5.12594914961696    5.44891921885319
H         8.33934668659692    5.52345464640783    4.69257896871066
C         1.93478399980888    1.81227959594130   -0.79608154421792
C         6.56484492098954    4.40582004845467    5.06847137730804
H         6.32879477765436    4.25995471738689    4.02674728449918
C         0.09736810312420    7.77687633549288    2.80193412472293
H        -0.29612290647660    7.95213513369447    1.81185032391687
C         3.19836426482957    0.89688892190612    3.08432117119008
H         2.23415883576264    0.53590987177828    2.75477670938551
C         7.94341824378197    5.35536838770239    6.78978264269035
H         8.81530585221393    5.92008191876893    7.08240489077882
C         7.98086595732441    2.59924825742748   -0.76635368014503
H         8.26100575584826    1.90132809942949   -1.54132888303077
C         8.93807746133853    3.43267505196687   -0.20761479988400
H         9.96218560984634    3.38270241579574   -0.54743034270292
C         5.96252729286694    4.13560096042594    7.38191950887823
H         5.28840688738621    3.76056084921006    8.13788444485460
C         7.07610468829071    4.86757943614525    7.75112816110480
H         7.26814230273365    5.05168313060798    8.79771982115742
C         1.43698990578664    4.39260591789281    6.79265196326703
H         0.56439033369862    5.01234426361915    6.74555111977310
C         1.66682162561630    3.34736024485544    7.70256675636325
H         1.01111079468575    3.04151745584284    8.49319389640480
C         2.87589831577689    2.78321198336739    7.38955365289838
H         3.39761965236018    1.95671754082587    7.83090107254220

