87
CSD_code = GIFDOQ | q = 0 | S = 0 | Stoichiometry = C36H33F6N2NiO8P | MND = 4
Ni        3.26291812623427    2.32736975099813    8.27571187478672
P         3.64262581803807    4.01743470254481    9.53721547434720
O         4.69283235441611    1.79500904055034   10.41027093381604
O         1.68892406414322    2.09776067496436    9.22438667821297
O         4.69746671252458    5.08758857800596    7.37646846753735
F        -0.31109180893498    2.12960491451974   10.89637277488507
O         4.86905254247841    2.35474312949664    7.37651999226115
F         1.79681119767741   -0.31912711063205    4.69791945924387
F         2.61728676868361   -1.80357316820650    6.02792879772682
F         0.49955612665348   -1.49296916662126    5.93416864870710
F        -1.47081199267402    2.19421027794707    9.08858727680496
O         5.74352914925944    4.36798786338540   11.83039254061866
F        -1.11216107137630    0.31548529327175   10.06839683814498
O         1.80281029442379    4.11242754492890    7.28992899890155
O         1.54643449763192    4.94331082034583   11.73173371401362
O         3.54907247384819    6.58740398214531   10.80288012197662
N         3.89099262599920    0.65163725634339    6.22768229852204
N         2.88171554212158    0.90652841871192    7.08876255877050
C         4.89714338823140    1.46732165789285    6.44840349861843
C         5.30023110836968    4.74283954661317    9.56350960072836
C         6.12432206507966    0.51138506938174    4.50293702839801
H         5.24259332235607   -0.06327123479412    4.26945515789471
C         7.26563248015349    0.42683176294339    3.72826580884224
H         7.28461605632093   -0.22566504359339    2.86778486124002
C         7.23190998846618    2.10070941928853    5.93780154278899
H         7.20220987627784    2.73788474131386    6.81056973789198
C         6.20149688562670    4.79386933137723   10.62672546910313
C         5.69149394414648    5.16971255802250    8.28935868436782
C         2.54990286446439    5.39292203045355    9.10297485615264
C         3.90427418562543    2.19754603608116   11.44539578662924
C         0.83365111588444    7.44892511276110    8.48815595666830
H         0.14349120494861    8.24712224680524    8.25742234507927
C         2.60420931769787    6.57799356665948    9.83479238331900
C         2.78983160292567    2.00051081053987   13.53826063718925
H         2.62423558463142    1.47135997647827   14.46499679404612
C         7.48990053282688    5.27140205345730   10.39535604030815
H         8.21103566152506    5.32547682620815   11.19521500610045
C         0.68431318466149    0.39021273919578    7.88875851736859
H        -0.19972839097043   -0.20824869391090    7.75366594778526
C         1.68882813130367    5.25944814115258    8.01213409937446
C         1.78143425124734    0.19856571008555    7.01849701653151
C         0.73554769585500    1.31741702503006    8.90436582009454
C         1.72952141357728    7.61419990721282    9.53071152352759
H         1.73443673720059    8.53663508243180   10.08933729844475
C         2.25580807715080    3.84349099681489   12.08266758082453
C         6.98051206466403    5.63094943669962    8.06115480869714
H         7.30015865515484    5.94804161979800    7.08143146017613
C         6.10149983922494    1.35304606913125    5.61236014143464
C         7.86472361594068    5.67228609461065    9.12527141545611
H         8.87162898263654    6.02731676535597    8.96248439262733
C         0.80703080322271    6.29746644799934    7.72085825792990
H         0.10089447181274    6.22378522000094    6.91005891119637
C         2.05648879715907    3.13911359913679   13.27002975329812
H         1.32028386508895    3.46851804708803   13.98492247355911
C         3.70807923841818    1.50367485905994   12.62771206700114
H         4.22916133425273    0.58360011167164   12.83816274368330
C        -0.52935548670267    1.48195697713045    9.74656112401034
C         8.38677706854647    1.17605448475631    4.05129673587913
H         9.27651916195999    1.10688992272941    3.44236193818924
C         8.36864634740728    2.01105386229178    5.15742611531961
H         9.24468048671657    2.59038980348333    5.41203829638086
C         1.68003754362014   -0.84963881207218    5.92881683992949
C         5.49247595250460    0.64346066794849   10.56755983889034
H         6.18649639494312    0.75809287535488   11.40664708481679
H         6.05475383897166    0.54544029655575    9.63963231292641
H         4.88200273249877   -0.25284294270408   10.71534033287333
C         3.23944299843231    3.40688627419172   11.19607473363735
C         0.90063620139207    3.89615568804908    6.22374965332181
H        -0.13255713308693    3.84179238203117    6.58129268481263
H         1.17931188392654    2.93924443279867    5.78355971958427
H         0.98782142184989    4.68018510332126    5.46420100155388
C         0.37659298018522    5.25245487699965   12.45135397283524
H        -0.29700227987979    4.39286959648199   12.50047462814745
H        -0.10413908111906    6.05610067030840   11.89386607127059
H         0.60256911657777    5.60096700718325   13.46552154178983
C         4.99994909288658    5.27085708091056    6.01360847458663
H         5.29756589599291    6.30511715671123    5.80825557300599
H         4.08267995935307    5.04390426145516    5.47357201683456
H         5.78626531429335    4.58613094394527    5.68348588805448
C         6.61329412502671    4.37293521337212   12.93448823853219
H         7.48660368522092    3.73381579113762   12.76609391313191
H         6.03096048092851    3.97467850876523   13.76455234222875
H         6.95033616180121    5.38524926842250   13.18180100203625
C         3.57104202990357    7.65370705440429   11.71820663152122
H         3.83467062232471    8.59877547248339   11.23074165714823
H         4.33802286173724    7.40102704942506   12.44863827957810
H         2.60853224748344    7.76286058297333   12.22708848354360

