46
CSD_code = GIFFUX | q = 1 | S = 0 | Stoichiometry = C17H21ClN3NiO3(1+) | MND = 6
Ni        0.00077918730658    9.86151822030582    6.63756468596934
Cl       -0.18189052727090    8.99662119862215    4.82689075908948
O         2.22238288267844    8.91132734630466    6.84168018095658
N        -0.89214662114791    8.51760333588105    7.68126158073987
N         0.17735174959333   10.69887714327290    8.25386559473981
C        -0.34002217578440   10.11660585301211    9.34319779412404
C        -0.94866114837090    8.85412674060658    8.97464182833368
O         1.01761770656879   11.53435627656756    6.03097566592753
N        -1.58036093374746    7.90807742322680    9.71108117395416
C        -1.50844337086621    7.30801356693355    7.55616833232258
O        -2.05997163875678   11.04262559769932    6.22123539105426
C        -0.23705956109965   10.74367832317015   10.58514159061825
H        -0.64574543155286   10.29746280978949   11.47509485803456
C         0.93659309220043   12.55625974479310    9.51787800990699
H         1.43840546891539   13.50853796866030    9.56560898837733
C        -1.73091381207339    6.49721819865657    6.44204399135413
H        -1.39228174469963    6.81205300464159    5.46848371936106
C         0.40766997190679   11.97048461053117   10.65996656445371
H         0.49626223956066   12.46994279189919   11.61212007862726
C        -1.95027657214700    6.91004361991285    8.84172591060008
C         0.79991048607374   11.87899729327434    8.31041939863755
C        -1.83445477201037    7.92184808251736   11.12631698100576
H        -2.35475568090482    7.00642089245535   11.39750796178473
H        -2.46502253468466    8.77079619840270   11.39619384137655
H        -0.89834704307624    7.96588060810159   11.68570037212003
C         1.26753989750856   12.28966404337908    6.96308989348915
C        -2.39035221317815    5.30859487878255    6.64863510544733
H        -2.58095874994772    4.65573561826660    5.81181137792466
C         2.00382265036070   13.56917944250228    6.78074344600746
H         2.24945857764863   13.70988189590511    5.73131286452433
H         2.92144670504751   13.55395186170079    7.36741333447277
H         1.39937228362195   14.40545412647398    7.12874845385114
C        -2.61613726042748    5.70429414884905    9.03388936095716
H        -2.95854350915169    5.38859234300385   10.00647966677773
C        -2.82552338326936    4.91839392585957    7.92233120206007
H        -3.33858882916696    3.97618301370866    8.03360811412319
C         2.39869225656042    7.56047455602044    7.24674221254446
H         3.44684773411606    7.26778877328517    7.14996701733948
H         1.77311545304508    6.88402963488188    6.65856136681570
H         2.10897285695840    7.49904255417673    8.29507799373541
C        -2.25809223789904   12.43094892902449    6.00771925873464
H        -3.31112170350403   12.64105426877927    5.80591336095576
H        -1.64960849301477   12.79908640683420    5.17727196298858
H        -1.96641549284234   12.94469905637677    6.92383661704263
H         2.51020551880320    8.97446603871783    5.91904537652832
H        -2.35575127789185   10.57450763424227    5.42583676020808

