51
CSD_code = GIFFOR | q = 0 | S = 0 | Stoichiometry = C19H22Cl2N4NiO3 | MND = 6
Ni        7.20116600396383   13.57461476317613    9.85145091356112
Cl        5.44753966244133   14.16350393061596   10.73021084357633
Cl        6.46522675684148   11.62975727567135    9.52237683328538
N         8.88810932021619   12.96244065233713    9.03537434102628
O         6.97430984696551   14.16758206643304    7.55124241269136
N        10.06586584680397   11.53734170467673   12.15334338553324
C         8.37091258848193   12.72646517153115   12.97895973422476
C         9.34642349362002   11.75462672537314   13.30346845343619
N         8.51731047336938   13.07493958908027   11.67230201281953
C        11.05745605830253   10.51266340368746   11.98475907907665
H        10.95239098922905   10.04577526175241   11.00527739013458
H        10.90717222120213    9.75094133131628   12.74901252099197
H        12.06884377800828   10.91633172228813   12.09149156011189
C         9.51987845977317   12.36034952336231   11.20198570202605
O         8.01630098741627   15.51565133912385    9.97520050834951
C         9.06555661986161   13.07197370893462    7.72147821527106
C         9.87963880623978   12.48303677033417    9.80161555455582
O         7.85095855754899   13.23052075143780    5.70587173805409
C         7.85758620709153   13.55538788038385    6.99467704982949
C        11.12155050957576   12.16866291012151    9.24968339800800
H        11.93691502092835   11.85097617219650    9.87817984383435
C         9.43046614989215   11.21816545610848   14.58102189182095
H        10.17089555177685   10.47698326136383   14.84328386596153
C        10.25587940591252   12.73158783938181    7.09294471923829
H        10.34329795942175   12.82182991644552    6.02282152042395
C        11.30866614305949   12.29723111074841    7.88294577763583
H        12.26326754548661   12.05543441763169    7.44037152144345
C         8.51852040393069   11.67241147944520   15.51102146334158
H         8.55177852047835   11.27668535662695   16.51535687521281
C         7.45210915862756   13.16641539846853   13.92854995957144
H         6.69436600037609   13.88100708494200   13.65102524849443
N         8.02522729148682   17.70627908826519   10.50624132975366
C         7.54426487068472   12.62458623526444   15.19024167037519
H         6.84762596828512   12.93167545225050   15.95556642796656
C         7.44464854681992   16.51040071430969   10.40060132202196
H         6.39893465177137   16.48521357266909   10.73461909132354
C         9.40122980969251   17.90095537747106   10.11593116068091
H         9.79194971808110   16.94772468678764    9.76529185995799
H         9.99269990128264   18.24580513864314   10.96691351905546
H         9.46954446526243   18.63986666470389    9.31445619841826
C         7.32943117854928   18.85873656371849   11.01415799231622
H         6.30851431590220   18.58791281783062   11.27297839047371
H         7.30765563304580   19.65071810222267   10.26123165238389
H         7.83253066627528   19.24198584486558   11.90565552002331
C         6.63835437818223   13.51652736049763    4.99609925218346
H         6.91407086899298   13.45460382496577    3.94139396067992
H         6.31668409053363   14.53381360891619    5.24141221312839
C         5.54728486757845   12.51715888736162    5.34997825478721
H         4.64927373395347   12.74274727803660    4.78234680182745
H         5.31631408536161   12.57469468288610    6.41117353086726
H         5.87230191141423   11.50560012332496    5.11930551822221

