16
CSD_code = GIFFOS | q = -1 | S = 0 | Stoichiometry = C4H6Br3N2Ni(1-) | MND = 4
Ni        6.01950656286157   13.53819502353676    3.72222335900527
Br        4.25204187236570   12.74469629385189    2.57944303482147
Br        7.15544850324398   15.19398802499862    4.71146241630008
Br        7.66856038972788   12.42470597232322    2.70252343634964
N         5.78379121952349   12.13890318566367    5.55158037577283
C         5.59207025495530   10.86593785345070    5.31260030128282
H         5.24848342842946   10.45924450330658    4.38071677553092
N         5.88197582326483   10.11184695369185    6.39022425180523
C         6.28537620428890   10.97396322582811    7.37255395163302
H         6.58336575406235   10.63054805065378    8.34239212778649
C         6.21928604320077   12.22482721376835    6.83599805016071
H         6.46202333184989   13.17070691038748    7.27867166187217
C         5.81167717498972    8.68386847835944    6.48594641207332
H         5.48993919050050    8.27936019189785    5.52781298520755
H         5.09806214567469    8.38481757052879    7.25845223200900
H         6.79179210106119    8.26979054775255    6.73389862838892

