58
CSD_code = GIFGEI | q = 0 | S = 0 | Stoichiometry = C25H26Cl2N4Ni | MND = 5
Ni        7.89607324206354    7.23877199525500    3.45780911025432
N         8.57061930275512    6.49243737563689    1.70151789654164
Cl        8.40918537878164    5.28561351809396    4.65032368012254
N         9.64442238724787    7.58821078990255    3.68921836469765
Cl        5.89022198606793    6.97644583759383    3.13122858664058
N         7.72005303603553    8.57769628605755    4.92111770844062
N        10.35248902307245    5.41786830524671    0.89371986186329
C         9.88469351919752    6.30421973552059    1.81454267005410
C        10.00751874682671    8.29705942020647    4.77061635351035
C         8.14642287306770    5.69976615012118    0.67640829256356
C         8.85847980267358    8.82245642548488    5.48644442741629
C        10.55434987442368    7.00768621514104    2.88617693920555
C        12.30292715407279    7.85509306519862    4.28008795645175
H        13.35259082394468    7.95662056143708    4.50933255941547
C         9.02957263760938    9.58307231064459    6.76008316685336
H         8.07434759809706    9.97815757921441    7.09727907781552
H         9.72650886708066   10.40693169812151    6.61062031598475
H         9.43727189732956    8.92830191248567    7.52948241496464
C         6.49421004747885    9.01391419845262    5.45259456686752
C        11.35317531094391    8.43410708452930    5.10344387960187
H        11.64557188653338    8.98234953670029    5.98413969138275
C        11.91084595818131    7.13791926282235    3.15543120646795
H        12.65318991204321    6.70086729332284    2.50993967683229
C         9.26731741995246    5.01450170810642    0.15273926869265
C         6.87311089477681    5.50660943625691    0.14516941817793
H         6.02784133259659    6.01764366000510    0.57734329347515
C        11.68735735238017    4.90281572373676    0.77753694390770
H        12.04948281538750    4.57333230859863    1.75267933119665
H        12.36423644961058    5.65864568627492    0.37035809700338
H        11.67506894366256    4.04762206255735    0.10483611589158
C         4.64644304763356    8.83574346356149    6.95513066425924
H         4.14626943197820    8.33023403315462    7.76754033175130
C         9.13700592833198    4.13375251225403   -0.91295737580322
H         9.98330946942293    3.60383202394992   -1.32349590771216
C         5.87169504524606   10.08757238360069    4.79245967740199
C         4.04911716956290    9.92372610739618    6.35182640736720
H         3.09337487498978   10.28035088917518    6.70642633531430
C         7.87064853518917    3.95642748029082   -1.42905621308098
H         7.73166959094119    3.27606606763792   -2.25585042206272
C         5.87809491130102    8.35971838583115    6.52362823536433
C         6.75910782110229    4.62793860902123   -0.90784960548580
H         5.78958159361541    4.44452385482918   -1.34474454922197
C         6.56584703802543   10.66873634550008    3.59017098753529
H         6.82969111959833    9.82507715196081    2.93335957870199
H         7.50697346852821   11.13346358961557    3.90800973979832
C         4.65512387718240   10.54050794211146    5.26987411709041
H         4.16112433233091   11.36925236839783    4.78964062977240
C         6.46411975354494    7.12798611271811    7.15620263657180
H         5.73977450230269    6.31756872235712    7.04195375352450
H         7.36838066859056    6.81634915776704    6.63242344551685
C         5.75173282415635   11.67800940613147    2.79352627209876
H         6.31297452637535   11.98805214350722    1.91434258790803
H         5.53486185416213   12.56514798340307    3.38531156287814
H         4.81684512758761   11.23350820445587    2.46243328756662
C         6.76782294392164    7.31055092154232    8.64298303853890
H         7.20931301418120    6.40043565205098    9.04159779704353
H         5.86046819257001    7.52484168544374    9.20289675304147
H         7.46477286371266    8.13028965961096    8.80459536202761

