21
CSD_code = GIFGAF | q = -1 | S = 0 | Stoichiometry = C9H7Br3NNi(1-) | MND = 4
Ni        1.57362779423823   -1.81628323230083   11.41836896767594
Br       -0.33109353231282   -1.54851532207952   10.07015954315830
Br        2.80087455837570   -0.45394095427180   10.16556744702537
Br        3.37801172813025   -2.36111951507950   12.81949256089695
N         0.48982926485615   -2.87364313849826   12.56686047332078
C         0.32885755647053   -4.16491867661447   12.39929530668172
H         0.84966958452341   -4.62212563929278   11.56500466338129
C        -0.46946889727798   -4.95097861260738   13.23693312281130
H        -0.55659666734021   -6.00866751633531   13.03966460428804
C        -1.12165512147996   -4.36162473160299   14.28712739280934
H        -1.74756432041042   -4.93552538546653   14.95670185775912
C        -0.97029547103033   -2.97565239536593   14.49517140466477
C        -0.14093285046021   -2.25547017824925   13.59714807230035
C         0.03204544121552   -0.87064997375047   13.77748909219904
H         0.67208968730162   -0.32703939788748   13.08156459777357
C        -0.59147214794611   -0.22038598175403   14.80568817156999
H        -0.45405660904031    0.84259273396021   14.93728349035196
C        -1.41244224057392   -0.92905258516352   15.69425136917666
H        -1.89882185093930   -0.40056640710624   16.50214156391181
C        -1.59819540647451   -2.27601728579062   15.54370689848096
H        -2.23021049982522   -2.82831580474300   16.22597939976167

