86
CSD_code = GIFHIN | q = 0 | S = 0 | Stoichiometry = C36H38F3IrN4O3S | MND = 6
Ir       14.29439638946947   12.07355869827135   10.78571723794879
S        15.31312222479918    8.91313550050838   10.94041273718081
F        17.79022468305646    8.88925444692377    9.96393190956772
F        17.68319116860055    8.34491980324884   12.04817599278958
F        17.06904591816290    6.93751067156314   10.53250448062582
O        15.58723287613000   10.28968252199076   11.32010926775335
O        14.68742235757204    8.11973116762697   11.96233829534616
O        14.84189541491649    8.73696518974332    9.59312571194997
N        13.54219701895184   11.61752995768012   12.57866381872421
N        12.81272734907853   10.62634931009975   10.24223582308610
N        15.00644217434307   12.29600494939729    8.94889066276732
N        12.64265287202543   14.85555034867635    8.16031913391286
C        13.83783768259620   12.18031462078599   13.74779853666974
H        14.27984006503256   13.16429168117572   13.69985382369032
C        13.62492702438219   11.57158126477634   14.96837808376510
H        13.91187346320362   12.09666503101772   15.86326299806226
C        13.07435704576573   10.29347095736150   15.01451931989852
C        12.71206705819231    9.73945821275797   13.79217484443486
H        12.26876374851636    8.76027435380709   13.76133222412786
C        12.94831033914487   10.40438181594950   12.59670293883571
C        12.57617780009553    9.83635351683954   11.29485215517289
C        12.04686580604908    8.56316799019555   11.12800396461101
H        11.92324833575253    7.92500903855000   11.98433618113912
C        11.76408884031947    8.07443977450429    9.85785099717408
C        11.95272889408301    8.95062603176078    8.79289394895796
H        11.73868034087197    8.66578344821333    7.77748661548987
C        12.48389452221556   10.20124541120463    9.03604852034233
H        12.66740984849436   10.89119314820696    8.22324680440291
C        12.88964359893946    9.50061758366625   16.29243665779971
C        13.25093305147386   10.31310081046366   17.53849707490815
H        14.29578807493954   10.61254619679538   17.52240542422926
H        13.09340853931960    9.70325933494021   18.42523838738817
H        12.62536916185632   11.19901030692376   17.62322041507385
C        13.81126812449412    8.27437711491102   16.21851922093710
H        13.60606520634446    7.67609700451201   15.33529841659895
H        13.67601396774472    7.65230173490215   17.10055696193895
H        14.85133218642788    8.58859515143611   16.17136567272837
C        11.42626062688719    9.05301546706741   16.41569930885090
H        10.76277151754601    9.91525786627821   16.39497228471309
H        11.27915576831285    8.52875331484349   17.35703118276042
H        11.14288273161794    8.38174626914019   15.61047357448436
C        11.36227149029742    6.62493885808463    9.68050941557969
C        12.61382284529467    5.79090888920812    9.99418478039296
H        12.39474188485671    4.72994148845788    9.89402509160275
H        12.97373811780143    5.98651866401928   11.00089865707006
H        13.41661879343860    6.05493021348612    9.30952335859153
C        10.90381859800916    6.31817093676148    8.25237318530801
H        11.71151875414914    6.47072525149761    7.54155260553747
H        10.05602625381445    6.94022513728529    7.97173767909935
H        10.59643185164187    5.27671159130604    8.18656795513068
C        10.22318803077141    6.25687773796806   10.64103388712204
H         9.37183614596961    6.91896902521903   10.49406787971710
H        10.53541257739150    6.31938170917963   11.67920076509923
H         9.90022442813657    5.23546367196495   10.45322411875414
C        15.97976898727578   11.54646972355373    8.44115591722523
H        16.46165273040476   10.85726926379953    9.11765392576929
C        16.36425096277350   11.63060410383117    7.11473671855681
H        17.15578508411092   10.99682965715012    6.74933094316005
C        15.72251217376232   12.53598093177691    6.27890319165707
H        16.00633541069983   12.62248921299856    5.24096509611011
C        14.71721419320100   13.32616682796142    6.80487357308695
H        14.18378152353699   14.05496337836948    6.21658684168895
C        14.37652274218403   13.18126254429884    8.14457327147875
C        13.33871378010327   13.94561290434928    8.82580669423721
C        11.71647299541362   15.55101355685282    8.81156146484976
C        11.45995098461924   15.32398488050168   10.16837787347411
H        10.68310579179249   15.87770760758905   10.67349592870809
C        12.18226371618909   14.36024310922087   10.85053582852551
H        11.97173861241124   14.17928796120374   11.89611020861257
C        13.16766295810703   13.62361212827515   10.19286657699780
C        10.97057450937604   16.54066800983919    8.02241045113370
C        10.84248135094386   16.35715841885350    6.64606298995489
H        11.29990017081878   15.48790926251182    6.20010028636631
C        10.14225961882041   17.26480166162038    5.87605918529070
H        10.04634230521088   17.10843772009506    4.81126217543304
C         9.56160091462194   18.37574955641979    6.46653347305227
H         9.01285212352850   19.08626962245101    5.86592200407427
C         9.69369393488895   18.57482240156815    7.83055392575096
H         9.25237979509014   19.44582026492036    8.29330948088097
C        10.39203115746887   17.66636577848520    8.60452059778013
H        10.50592445436410   17.84771581370560    9.66284598218746
C        17.05741990622896    8.22926834120639   10.87341841979307
C        15.77820795849872   13.37204913720102   11.48573249608376
H        16.43652975329310   13.73491748701953   10.69464002174129
H        16.39607722024896   12.79273798026509   12.17052904196540
H        15.42092859066559   14.25402055901571   12.02008442455674

