108
CSD_code = GIFHEJ | q = 0 | S = 0 | Stoichiometry = C43H57Cl2F2N2PRu | MND = 5
Ru        2.06233297556341    2.29956218333096    7.71556748092330
P         4.08821877569170    2.74527744632010    6.57086716599339
Cl        2.19044374033394    0.13734407242356    6.77252000823176
Cl        2.37072374435677    4.19363361703702    9.14114778378665
F         0.51207952433921   -0.93339434852963    8.96565747838730
F         3.12722018196441    1.28566433647052   12.17593744817161
N         1.04805813671127    1.39911245850412   10.31723734980216
N        -0.48487709546207    2.57283123820549    9.32360544636812
C         0.66434159242960    1.93558283648248    9.13232135070635
C         0.18340321110461    1.80798470153627   11.42470291615339
H         0.72210768873921    2.51096178325863   12.06869266481639
H        -0.11792975859889    0.94049294852112   12.01743379882208
C        -0.98196325623495    2.47228933391438   10.69400715781971
H        -1.89685929928065    1.86738175816463   10.71248322767265
H        -1.21113586642782    3.46085106650454   11.09174883612340
C         1.86918908839190    0.27356710795707   10.45524534554332
C         1.61334001380954   -0.89339028888859    9.72560205036279
C         2.39268387047898   -2.02686468385223    9.85539771224555
H         2.16393766862189   -2.88960651999819    9.25168802366452
C         3.42350160552033   -2.03472360034691   10.77862867724826
H         4.03187310960254   -2.91724211174537   10.89659449430210
C         3.66407224789603   -0.92447172374846   11.57233285128165
H         4.44317515427448   -0.92230193400256   12.31762643877716
C         2.89646369188555    0.21077703791168   11.39717714151506
C        -1.31350492695202    3.14249542275055    8.32123393773330
C        -1.94955852690699    2.28687927605985    7.41423636810612
C        -2.78581522230012    2.84036746257984    6.45734533088134
H        -3.27385153508239    2.18762192609423    5.74748998221437
C        -3.01656180588225    4.20668158514520    6.39496120140967
C        -2.39987414350569    5.02608612617100    7.32701143668108
H        -2.57793342857737    6.09132748522074    7.29479285176791
C        -1.54755655365485    4.51853690496255    8.29673656222824
C        -1.75217605512367    0.80388395445447    7.48153377178828
H        -0.70801634522209    0.53964127707649    7.31991272760757
H        -2.35365392912200    0.30485445672443    6.72688709770148
H        -2.03799999332022    0.41789833836566    8.45924028565138
C        -3.93816614098276    4.78587764734069    5.36585923708212
H        -4.02123581815120    4.12772208677209    4.50480788943748
H        -3.57930346073108    5.75800207040286    5.03607591770930
H        -4.93428230942373    4.91927305914459    5.78914325921192
C        -0.90687467893427    5.44797020420939    9.28022591724434
H        -0.83013182790730    6.44462812215484    8.85385763003049
H         0.09135653744039    5.10705608087331    9.54432335386885
H        -1.50788412944215    5.52109749871151   10.18814522895529
C         4.32815697655415    2.04287381870842    4.86309582369046
H         4.25268239039590    0.96257569139794    5.05154151900975
C         3.18370284959446    2.37546568193025    3.90752571709550
H         2.23431590739316    2.16228772199718    4.40595961658870
H         3.19143657816713    3.43049301868756    3.63205959982223
C         3.31537655914559    1.52492161861293    2.64655947394788
H         3.22889198337934    0.46978670042087    2.91384023401569
H         2.50592182254319    1.76352424034085    1.95354309103183
C         4.66353185173881    1.77330464446367    1.97490389749976
H         4.75953650257118    1.14430741054740    1.08738386672305
H         4.71953708201203    2.81611698406553    1.65224673468922
C         5.80839986929714    1.48205764377674    2.94111446844912
H         6.76638150834748    1.68664343498168    2.45677780157169
H         5.79021509069566    0.42417906661995    3.21383265787965
C         5.67355429939841    2.33347871072354    4.20301984564341
H         6.49857708557246    2.11714211733267    4.88524572835127
H         5.73439639303199    3.38640869189672    3.92322490164129
C         4.63717519433710    4.53707941628902    6.60991622089997
H         4.17220781180742    4.90450353738584    7.53615643915691
C         3.99659021734895    5.30292283398422    5.45171551087675
H         4.49011204046909    5.04122235728525    4.51381483905468
H         2.94055454467558    5.03665048278674    5.37447601495734
C         4.14277314104862    6.80488068344250    5.67138436589611
H         3.66597650245604    7.34725783083352    4.85186146593972
H         3.63953536754992    7.08484613723583    6.59842956726800
C         5.62069281066687    7.17104400836248    5.75876926471473
H         5.73456662229112    8.24189710214780    5.93978787854994
H         6.10959930705138    6.93984360607698    4.80874338245332
C         6.29043525821671    6.38412688874085    6.88025637221961
H         7.35407827746248    6.63073973873273    6.92485211095445
H         5.84019460957942    6.66832762415293    7.83405194480452
C         6.12569187529368    4.87520099780138    6.68529884762266
H         6.60117000024015    4.37736468324665    7.53186319682067
H         6.63875475154186    4.56735970258287    5.77216522062371
C         5.42278817330784    1.87684712821202    7.54880225739052
H         6.37599923914218    2.39029655823346    7.37590941901160
C         5.62457405189149    0.39652189639014    7.22415057743706
H         5.93299915352102    0.26746539665994    6.18599833083941
H         4.69086721688286   -0.15237714195278    7.37117376981059
C         6.71243895171984   -0.18052980547098    8.12786895953601
H         6.86857094452833   -1.23338975078245    7.88342168315827
H         7.65327366734909    0.34758160151150    7.94745024699122
C         6.32252960909617   -0.04324042533402    9.59438822388907
H         5.41529371864924   -0.62397889761032    9.76993199106307
H         7.11121270133190   -0.44682927479594   10.23370484259286
C         6.06703047904390    1.41862086290225    9.94645225722133
H         6.99805858963871    1.98391577971253    9.84723472762183
H         5.73707548482623    1.50563579230919   10.98391799310038
C         5.02245209954522    2.02798781712964    9.01935459446501
H         4.05109902924448    1.51336401307683    9.16680981351954
H         4.88767336027386    3.08550435159003    9.27027720120198
C         0.84406790687844    2.85029663422308    6.34768058485399
H         0.35324951220604    2.02020599709827    5.81811141178298
C         0.46527941897162    4.11449976637550    5.80939543846017
C        -0.30566605122958    4.15119660195488    4.63166519313852
H        -0.58482489251217    3.22022141974974    4.15907680415163
C        -0.69483942652761    5.34814234748707    4.07097603363672
H        -1.27734898255629    5.35118775899713    3.16074661165722
C        -0.34754283552090    6.54739882501049    4.67497742925843
H        -0.65955978385090    7.48487794094082    4.23747123921362
C         0.40044179725709    6.53566796044691    5.84298992195772
H         0.66969734856369    7.46850713316895    6.31692617363563
C         0.80958019877572    5.34302267321487    6.40063930819179
H         1.38672978575135    5.33712451133390    7.31123650471518

