51
CSD_code = GIFJAI | q = 0 | S = 0 | Stoichiometry = C14H30N4NiO2 | MND = 4
Ni        2.83728252133418    4.36728678226918   -0.00000847747844
O         3.60965451559677    4.74833522591045    1.64889594565434
N         3.33644597238485    6.16966822449394   -0.45258807351488
N         4.00402201339822    6.76520848820404    0.67935928285176
C         4.07762326372083    5.95421952165786    1.67196448541311
C         4.72741710119203    6.42074644504361    2.96615868283854
C         5.77329816995881    5.38275350546747    3.38137415447822
H         5.31301333049859    4.40107193402668    3.46155233013086
H         6.20658838907607    5.64840850265542    4.34316636766968
H         6.57025795839524    5.33130202422958    2.64254120895513
C         5.37997589786144    7.78818143849446    2.78566914412333
H         6.15265616912551    7.74132491130172    2.02386952451743
H         5.82685764041061    8.11234636292617    3.72341677956293
H         4.64164911495498    8.51922426613626    2.47136870224260
C         3.62255370138297    6.49769106812095    4.02557970578676
H         2.87817551404699    7.23823802372035    3.74124743223794
H         4.04346909914134    6.77870104124416    4.98862973856189
H         3.13115784672353    5.53272004306624    4.12533398696021
C         2.16010428294326    7.00117274550618   -0.74462513310508
H         1.48318922580813    6.97541217517078    0.11106623223669
H         1.64984284035420    6.61819799394661   -1.62751530461026
H         2.47943519461958    8.03505299833251   -0.91061764175071
C         4.27222100692471    6.22833711942137   -1.58366311953137
H         4.58115511319074    7.26610649512255   -1.74464315077649
H         3.79135699621431    5.83512249482851   -2.47836665997559
H         5.15480730735364    5.63165059318303   -1.34811598616983
O         2.06488602653042    3.98625122803075   -1.64890461095209
N         2.33814041577172    2.56489556438325    0.45255786753607
N         1.67052716062621    1.96937224564277   -0.67937664651962
C         1.59689930712018    2.78037383465818   -1.67196900037389
C         0.94702450235169    2.31388007640463   -2.96613501750508
C        -0.09886546914749    3.35189662821698   -3.38127347200325
H         0.36142670158194    4.33357383783926   -3.46145844085015
H        -0.53220918197387    3.08626523978801   -4.34304797142920
H        -0.89578509711245    3.40334528215598   -2.64239834021858
C         0.29445280642858    0.94645302801687   -2.78563190144824
H        -0.47819043524412    0.99331001817129   -2.02379744447751
H        -0.15247602974629    0.62230706816042   -3.72336076708938
H         1.03278080626321    0.21539640112858   -2.47137523303885
C         2.05182737447273    2.23693748619677   -4.02561986803243
H         2.79621390106132    1.49637602099261   -3.74133877967945
H         1.63085717345296    1.95594689590919   -4.98865299271775
H         2.54322832773305    3.20190492399123   -4.12538344157966
C         3.51449927603771    1.73339491463227    0.74453652384907
H         4.19138580166009    1.75917526969508   -0.11117696692098
H         4.02478726877256    2.11635775008690    1.62741659198588
H         3.19518243193306    0.69950896829266    0.91052126751229
C         1.40240620147225    2.50619657195880    1.58366500521104
H         1.09348590753765    1.46842153373364    1.74463648204655
H         1.88329688122242    2.89939853698482    2.47835916196728
H         0.51980775458278    3.10288025044891    1.34815783741919

