117
CSD_code = GIFJAG | q = 0 | S = 0 | Stoichiometry = C60H50FeN4P2 | MND = 6
Fe       -0.00007115648739    0.00008874909135   -0.00002077480733
P        -1.52627436853408   -1.29834368912773    0.88088576428880
N        -0.30797656236579   -0.79246531985615   -1.81262513971593
N         1.39564292502973   -1.38420438262805    0.37030299250982
C        -1.23306016058584   -0.40031791194759   -2.72969188070570
C        -1.23692427123364   -1.29703633187832   -3.84976488219035
C        -0.29588941164443   -2.23334325331413   -3.59909931541018
C         0.28033309536481   -1.90626041547100   -2.32648083153938
C         1.26286763564262   -2.67511766433417   -1.71401323573239
C         1.76829552112869   -2.40782108953462   -0.44582441621905
C         2.80063605075047   -3.18769061664704    0.17343301456305
C         3.03774208064482   -2.62732002867844    1.38175404178062
C         2.15973860983726   -1.49834881403079    1.49090406566564
C        -2.10404125568587    0.67643846486893   -2.61186440573064
C        -3.02166235312551    0.95629137422225   -3.73572967984997
C        -4.39963829517874    0.84576627200384   -3.57686176389973
C        -5.25307566935922    1.10356459211257   -4.63394494119814
C        -4.74308133623906    1.48100724991039   -5.86483194828412
C        -3.37336317399939    1.59786589705546   -6.03253417162629
C        -2.51927554485012    1.33547943185723   -4.97719193044116
C         1.78806915673448   -3.84612573154616   -2.44690663624734
C         1.58088778041939   -5.13670482388031   -1.96979021257150
C         2.06882297089707   -6.22994050108570   -2.66184831234621
C         2.77573096480503   -6.05004636870892   -3.83895984130452
C         2.98988500341697   -4.76965646508848   -4.32091106835526
C         2.49812047840266   -3.67631895446515   -3.63164040586069
C        -2.94060775771087   -0.51507309916163    1.75478557777895
C        -1.01811743025054   -2.47991623012658    2.19371849211792
C        -2.36516994893529   -2.38791768214042   -0.31432595881118
C        -3.46964707943494   -1.93252346488127   -1.02677073074015
C        -4.01262873558874   -2.69513801259945   -2.04383625958423
C        -3.45021132191025   -3.91734139760942   -2.37148636852578
C        -2.34327681295392   -4.37432143842285   -1.67635672775645
C        -1.80065595253719   -3.61157224297988   -0.65935841370510
H        -1.89197702829886   -1.22509383054922   -4.69608826043932
H        -0.02645112818032   -3.08026668752893   -4.19967814796343
H         3.27884728688617   -4.04145041113690   -0.26635678881056
H         3.73200994566985   -2.94616262313515    2.13489984890305
H        -4.79898363383512    0.54874770238327   -2.61814854048385
H        -6.32098999484498    1.00933770828706   -4.49794372772164
H        -5.41011465070733    1.68388191868782   -6.68984315148847
H        -2.96972189459029    1.89565202381810   -6.98961361694064
H        -1.45056686075864    1.43017564462510   -5.10770544142010
H         1.02735456800507   -5.28004875121063   -1.05299836127871
H         1.89713691965119   -7.22697207124357   -2.28187066178199
H         3.15827388954754   -6.90423167445088   -4.37813022558863
H         3.54281407588499   -4.62282353321405   -5.23764348191855
H         2.66825920987620   -2.67702476293884   -4.00666921263748
H        -3.41178184916123    0.23332397227632    1.12250297307336
H        -3.67242561712222   -1.26658683822397    2.05251990141285
H        -2.54479852141933   -0.01185461033101    2.63624257722605
H        -0.69613172170354   -1.89598006245419    3.05521947408072
H        -1.85053853445959   -3.12677759563401    2.47229136041226
H        -0.17577620300238   -3.08101997050182    1.86066940686958
H        -3.89792679991967   -0.97033778326232   -0.78697242123494
H        -4.86850704421190   -2.33040790920949   -2.59352865674873
H        -3.86792793711226   -4.50818183889407   -3.17325486682052
H        -1.89342430900230   -5.32135340734147   -1.93812541080489
H        -0.92459744738386   -3.96092621627640   -0.13307072846633
P         1.52613747920759    1.29850763295372   -0.88092147495875
N         0.30780471002777    0.79262283657986    1.81259748206320
N        -1.39580757164412    1.38434450461631   -0.37032676546832
C         2.10365204419754   -0.67648296065200    2.61196896377123
C        -2.16003431885678    1.49837808925867   -1.49084865369875
C         2.94008664532599    0.51526281618286   -1.75546406802829
C         1.01780158715672    2.48059634995908   -2.19321898700199
C         2.36557688768133    2.38750886489049    0.31443080615201
C         1.23277666387350    0.40036733251954    2.72972902475334
C        -0.28036796636720    1.90652429073468    2.32638207196142
C        -1.76833593225613    2.40806523046170    0.44572509462828
C         3.02107205095473   -0.95649247219799    3.73595760552262
C        -3.03800979869120    2.62737271950848   -1.38171794728131
H         3.41126076682781   -0.23346893382929   -1.12357707992992
H         3.67198497836923    1.26674029197887   -2.05309014410563
H         2.54396091873016    0.01246267202336   -2.63701669401952
H         0.69541617460161    1.89698815507175   -3.05479398546070
H         1.85026632778703    3.12737021075798   -2.47186180806845
H         0.17568982303776    3.08177044986006   -1.85971714867253
C         3.47009310817164    1.93160671841268    1.02649111628712
C         1.80148212025344    3.61121950777339    0.65994214836231
C         1.23670507940178    1.29711765252463    3.84977616182324
C         0.29584226208703    2.23357228208503    3.59901475181377
C        -1.26280050364523    2.67546074661619    1.71385035814375
C        -2.80072203368794    3.18789687709291   -0.17350384561428
C         4.39908751298091   -0.84613138011580    3.57731789311048
C         2.51843585366843   -1.33567388495258    4.97732064969523
H        -3.73236918292679    2.94613526417209   -2.13481392309947
C         4.01352554741270    2.69379051463473    2.04363810552986
H         3.89804749139494    0.96936807659231    0.78632108933376
C         2.34454828344192    4.37353283690816    1.67702910121743
H         0.92540033822829    3.96097080075111    0.13396143354966
H         1.89169761418686    1.22510179653786    4.69614020309651
H         0.02650833128932    3.08056324218966    4.19954517027654
C        -1.78780846729477    3.84664205586921    2.44660659826576
H        -3.27884696268172    4.04172888801755    0.26624013260525
C         5.25231981645602   -1.10408655804331    4.63452801539107
H         4.79862006158794   -0.54911495577161    2.61868299628969
C         3.37231846512909   -1.59822020030886    6.03278821924984
H         1.44969374531119   -1.43023823466958    5.10765748114186
C         3.45152115540321    3.91605522671916    2.37176674975739
H         4.86943775850430    2.32868295295545    2.59302570215349
H         1.89501039475324    5.32061126130358    1.93916645156135
C        -1.58045134733208    5.13712102182721    1.96929357411623
C        -2.49784424474352    3.67711542529111    3.63138942356709
C         4.74207838903033   -1.48152648177219    5.86531341312646
H         6.32026841763524   -1.00998563546193    4.49870689485351
H         2.96848346885575   -1.89600094238747    6.98978774049606
H         3.86959143982040    4.50655369884059    3.17360231719771
C        -2.06819310735399    6.23053236470473    2.66121053575815
H        -1.02693781708317    5.28025134946364    1.05245496813356
C        -2.98941605837032    4.77062865321135    4.32051944011435
H        -2.66812541553241    2.67790131565766    4.00656715638770
H         5.40895209733052   -1.68452471546088    6.69042281562845
C        -2.77508261934299    6.05091634492622    3.83837584718719
H        -1.89637124812300    7.22748208212676    2.28107946386846
H        -3.54233577635451    4.62401301870444    5.23729239677503
H        -3.15747383209379    6.90523843883011    4.37743742571473

