28
CSD_code = GIFLAI | q = 1 | S = 0 | Stoichiometry = C9H12O3ReS3(1+) | MND = 6
Re        7.44335999081352    3.10193883644713   22.70410214840302
S         7.10086817390190    4.99940717680814   24.24767295410386
S         7.87704353380061    1.79864421359405   24.75771552648680
S         9.83439466687996    3.70350642645754   22.84800941254041
O         7.03983286481472    4.95234912090585   20.26075641619131
O         4.44268218836577    2.36587372901746   22.81519106802967
O         8.11582510267282    0.66689989701434   20.92188735470925
C         7.36277955979082    4.32035687383911   25.94044139542287
C         7.06757133322919    2.83730404186122   26.02583457104626
C         9.66167647622246    2.05027977243803   25.14114140132623
C        10.48434953100755    2.36396950938507   23.90879499214247
C         9.91595974200206    5.15754783911235   23.97686938317922
C         8.63274348793995    5.96206259702995   23.98532011039585
C         7.16908587770995    4.25011257975561   21.14270545397963
C         5.54376814792771    2.63043824191397   22.74144755856760
C         7.84256959152349    1.56723823954866   21.55632472139726
H         6.67429673699038    4.86058519887941   26.59181171759240
H         8.38070737515120    4.55911979045287   26.24605143525369
H         7.35587500300320    2.44216023014053   27.00118578201404
H         6.00414906205540    2.64601008591625   25.87003950946358
H        10.01170594046309    1.11306329164575   25.57617866341023
H         9.73730468409460    2.82835920884936   25.89972697234995
H        11.50471951830052    2.63467158332716   24.18467398049289
H        10.51862928302721    1.50310582652105   23.23836878442657
H        10.72837334869887    5.78322109421500   23.60446612265648
H        10.18775899049596    4.79951569873926   24.96910355139694
H         8.66661004981476    6.73405340332132   24.75569013977193
H         8.47025973930217    6.43940549286379   23.01708887324968

