66
CSD_code = GIFNUG | q = 0 | S = 0 | Stoichiometry = C26H31ClFN3O3Ru | MND = 9
Ru        9.32170603866537    2.36595384260464    0.88230985768608
C        12.44119125575549    2.45878584393605   -0.54129787007962
H        13.20937009966583    1.68811344174569   -0.52100991963488
H        12.90685265754566    3.43208456642329   -0.67732697508043
H        11.79379862575911    2.26427613097082   -1.40008873187116
C        11.61407853750392    2.42079388353234    0.70356730680588
C        11.18291927088360    3.60440805751668    1.33539163385929
H        11.51078798918425    4.56581138763613    0.95859594587187
C        10.37780209322017    3.54649256454926    2.49755155405100
H        10.10155067747716    4.47514061677630    2.98510584474519
C        10.01250029329485    2.31613177897353    3.08508419905482
C        10.41452581064369    1.13335010027841    2.41446944592344
H        10.16002864850695    0.16879830097888    2.84526288105114
C        11.21911592532279    1.17759468021962    1.25496290761888
H        11.57811415508719    0.25621471848463    0.80982089151201
C         9.20032997729571    2.24977613927127    4.35810058746355
H         9.09058567966552    1.19498806127837    4.63326148023640
C         7.80100716839120    2.82254063583629    4.11492586381886
H         7.33900413071690    2.31695560316321    3.26742091284961
H         7.85223886447819    3.88704875124776    3.89726502879207
H         7.17353172929613    2.67786868192842    4.99090264171975
C         9.90862677452350    2.97518340979210    5.50508001402475
H        10.90921357341359    2.57406784823967    5.65393819017701
H         9.34492326858881    2.84585223977030    6.42558143866240
H         9.98999336425503    4.04073276487589    5.30388387580774
Cl        7.56815430464393    0.83027846270553    0.77518781387881
F         1.80484936517370    1.34593997104028    3.89965838299839
O         7.75629328034072    3.75721688549060    0.76419296744223
O         9.29909330175135    2.27767487318971   -1.17602004480490
O         9.49490165213683    1.91697394627132   -3.84773755886042
N         5.74635864495333    4.39525326522823   -0.00513435599789
H         5.10324666257112    4.29450354787207   -0.78078736596137
N         6.06460449395730    3.36556354084660   -2.35691716395125
N         7.30912410995457    2.48115565904173   -4.11974760739438
C         8.30391670144609    2.59023518585832   -1.90186960843052
C         8.44890635785138    2.29344545646732   -3.35386368845373
C         6.14997565202122    2.99500556357850   -3.58118592770394
C         7.11592923361507    3.20106646623362   -1.49844304114674
C         7.42272813979511    2.14396240555417   -5.52595639834826
H         6.67096227248301    1.41123554976139   -5.81415016909152
H         8.41645501426811    1.71873677865491   -5.66824724096025
H         7.32836118766150    3.03597498811531   -6.14676148027728
C         4.91377141625074    3.10308045047233   -4.43782254179106
H         5.19798439341406    3.27671990898099   -5.47837029265246
C         6.91266874919740    3.75184488914485   -0.16805950163074
C         5.28486786829519    4.88552551775651    1.26967562600866
H         4.80291853506834    5.85660912684333    1.12515388074183
H         6.17384086553392    5.01987343387831    1.89449796884660
C         4.33678735499360    3.92887863466185    1.95489775415244
C         4.60737227612639    2.56505412329469    1.96991009323444
H         5.48516297572224    2.17158787051646    1.47754148976019
C         3.75840493408621    1.68914518686641    2.62127668818243
H         3.96412211763307    0.63124905524860    2.63828818253910
C         2.63884196103505    2.19303705043359    3.25720304886264
C         2.34533034675349    3.54413985989650    3.25616414694122
H         1.46275743219335    3.90390815270064    3.76111564064439
C         3.20223838126035    4.40755747436233    2.59702057194943
H         2.98533652772036    5.46598631744944    2.58902490484168
C         4.03856341790009    4.26685208322189   -3.97570281236835
H         4.60245821123627    5.19576100349152   -3.98356122117633
H         3.68245818887947    4.08741812813641   -2.96614218959236
H         3.18196314840607    4.37048287480273   -4.63722507763265
C         4.13144201744849    1.78780674386668   -4.34163732805438
H         4.73178247567236    0.94216117321065   -4.66824318845720
H         3.23877434406335    1.83779178072505   -4.96068954828004
H         3.83429507732331    1.61394256409598   -3.31059281309072

