41
CSD_code = GIFPOC | q = 0 | S = 0 | Stoichiometry = C19H16Cl2N2NiO | MND = 4
Ni        2.65571403755818    0.11190001529573    2.23434155199186
Cl        4.38203532624240    0.33884792373629    1.12718207676605
Cl        0.68704397177447    0.26076523428088    2.83629047437100
O         3.05127552417785   -3.83983402421177    2.88961925594367
N         2.73813516490054   -1.71645275433601    2.34339053627648
N         3.66825526064428    0.12716218883805    4.33725284457805
C         3.90876876816780   -2.27241276136922    4.48329620232221
C         4.56910535558495    1.55711480567715    6.02402925473473
H         4.72119609371798    2.56683598585673    6.37198065123599
C         3.22624576514419   -2.54432377533823    3.23680809632058
C         1.15233751582079   -3.17300312599400   -0.65262089510898
H         0.65402230083137   -2.95467011812018   -1.58435853348956
C         4.38035354912458   -3.36210239259863    5.20057307238249
H         4.21645014117548   -4.35392902382777    4.80934690710137
C         5.28637188818688   -1.95822084438652    6.91504438964989
H         5.81796224516124   -1.82335252023338    7.84557483178720
C         1.45548245498001    4.18374855183669    3.90916238522547
H         0.58749956639679    4.59570366854295    4.41765482222169
H         1.13550596322005    3.81018370064853    2.93946719450458
H         2.17678711195220    4.98371884623907    3.75209773851094
C         2.40999526826330   -3.82720087094512    1.69393414007259
C         4.82420360911999   -0.82063503464749    6.22814027918557
C         4.12219297766131   -0.95700642892756    4.99792033985976
C         5.06251878553622   -3.20968089429158    6.40646464198448
H         5.41338913355824   -4.08542294927251    6.93026422177764
C         3.87379704830628    1.33484906301294    4.81784797624584
C         2.20764415244865   -2.48687676207540    1.33676736945384
C         1.98542976490992   -4.86658578254090    0.88569396473899
H         2.14092278953131   -5.89612273255623    1.16252250996364
C         1.57435513631062   -2.13552002866708    0.15187530268450
H         1.43170024672177   -1.09224177530531   -0.10281312577334
C         5.03891572053042    0.48477606547889    6.72315091204081
H         5.57643151629745    0.61109129566273    7.65213166948907
C         3.30400192429639    2.47664108452216    4.04083794005846
H         3.00921789598350    2.09804535745098    3.03915769101283
H         4.05612284994234    3.25711478802432    3.90615818994466
C         1.35368565285592   -4.50769659963560   -0.29156091227288
H         1.00497975097530   -5.28493714855689   -0.95398733777232
C         2.06344690714667    3.05608197588283    4.73139546591423
H         1.32650955276296    2.26020674113999    4.85208653302515
H         2.33729131206627    3.42414105570452    5.72327937102528

