116
CSD_code = GIFQIY | q = 0 | S = 0 | Stoichiometry = C59H50N2O2P2Ru | MND = 6
C        -2.42942592842864   10.99761572658429    4.24725924427421
C        -0.25707096685869   10.71016790758954    6.32775556330724
C        -1.07413781615143   10.41073751616503    7.40481101329003
H        -2.13455490481777   10.25460247578952    7.25662267743449
C        -0.56113458273718   10.30795406280890    8.69185156307320
H        -1.22255852599646   10.06370622729301    9.51146948852785
C         0.78005423813032   10.53632230450543    8.94060789460266
H         1.16190978492843   10.47218430740612    9.94959943325001
C         1.65187611447773   10.82349802266864    7.89754213629252
C         1.12573822614499   10.87356508963120    6.59382894657539
C         3.06338269589376   11.14427718028536    8.14815534784534
C         4.08295452468029   10.65496366321813    7.33486985090358
H         3.83423786958113    9.99681418198971    6.51821323693110
C         5.39857150511174   11.00869377585699    7.56665723191456
H         6.17963847055053   10.62479358061222    6.92524840107735
C         5.72178747300421   11.85373951126447    8.61561424550216
H         6.75068351430329   12.13166090593301    8.79362826383166
C         4.71741904581880   12.34135548190899    9.43460591235246
H         4.96113207813264   13.00318202063156   10.25385807326836
C         3.40037065324637   11.99019178281796    9.20354969764037
H         2.61833983322149   12.39247598428464    9.83238829499811
C         2.04368298619010   11.49341900908037    3.29151527092070
C         1.22754322997559   11.62782179560941    2.13108603308191
C         1.90901256629845   11.89840508401487    0.92190535060176
H         1.32619163234891   12.00691231767500    0.01872224267700
C         3.27258725007582   12.01803606192542    0.90070525766707
H         3.74663941538872   12.22488383990665   -0.04838590412128
C         4.07261828709829   11.88522302392731    2.05182044870301
C         3.43542084960323   11.62418799754388    3.24150182134339
H         3.96140009507222   11.51072798356508    4.17529459045727
C         5.58074961861498   12.03402735987983    1.93625511558945
C         6.28194443599175   11.84614035174931    3.28399170394654
H         7.35664333067147   11.96423403834874    3.15664844055080
H         6.09367615789885   10.85172846014274    3.68212567167261
H         5.94166113842483   12.58419632994669    4.00659353337589
C         6.12310355770610   10.97901875136519    0.96176691787765
H         7.20581928936525   11.05926980601937    0.88450897633806
H         5.70165631288327   11.10385604877359   -0.03202484805309
H         5.87311510347117    9.98148729062506    1.31527073822860
C         5.91274559298302   13.43765930312672    1.41112980444477
H         5.51785041024348   14.19160795806495    2.08790221206870
H         5.48185652005192   13.60369314328405    0.42737320052655
H         6.99091500236513   13.56710002182667    1.33697463437067
C        -1.23030899859122   13.90214733602274    6.41682855987708
C        -2.37512129026745   13.26559642379024    6.88618927278760
H        -2.81074882656182   12.47281126086485    6.29292213228435
C        -2.94265604366922   13.64050869994979    8.08860440695149
H        -3.82851311966048   13.13785618047081    8.44753920096879
C        -2.37194394083179   14.65953791657710    8.83381446111519
H        -2.80744241557066   14.94972287463597    9.77860346382392
C        -1.24456683916477   15.31037686524062    8.36267715541160
H        -0.80432444223820   16.11358052659176    8.93600461242803
C        -0.67525176709279   14.94039052568646    7.15657749052445
H         0.20161547791623   15.46123484796198    6.79782368438431
C        -1.59835710611993   14.40312620964376    3.69244547733196
C        -1.80943554211878   15.74549438476159    3.99640789528568
H        -1.37940751713265   16.16850994172892    4.89363944653258
C        -2.57060878068084   16.53180535569323    3.15283512947718
H        -2.73443204431353   17.57278492857822    3.39115907203525
C        -3.12504215625993   15.98758414199447    2.00437716551299
H        -3.72206180367987   16.60560266371062    1.34979907001342
C        -2.91155987675476   14.65488909418156    1.69630500734297
H        -3.33884380967923   14.23163734913341    0.79906828419935
C        -2.15101215639016   13.86196874741140    2.53807586244929
H        -1.96334412058002   12.82368603811093    2.29587996215653
C         1.04464837880033   14.10822737988262    4.67851924304489
C         1.47170580549386   14.65878701411938    3.47356025566681
H         0.77770540211890   14.74501316303118    2.64777607661730
C         2.77914550753613   15.08691628632932    3.33262660304469
H         3.10270757530143   15.51610475112934    2.39565051441109
C         3.67192692630537   14.95071509236337    4.38284449322241
H         4.69452786028545   15.28103360063441    4.26980197144411
C         3.25799815768127   14.38720813881559    5.57905204053141
H         3.95489038421830   14.26225793718615    6.39520524717217
C         1.95064966787772   13.96527761555973    5.72971238977857
H         1.63181929363772   13.51826515542329    6.66200491998020
C        -1.14668891387373    8.25487225564422    2.29409596686045
C        -1.93641515455177    9.10722961913043    1.53393667175828
H        -2.01836510347927   10.14810633161313    1.81776134074095
C        -2.58943168376381    8.62894367562683    0.41083121234361
H        -3.20131702366765    9.29482356989443   -0.17985698296061
C        -2.45884726393908    7.30020002221836    0.04541580328810
H        -2.96978450698375    6.92662717793722   -0.82994995686487
C        -1.66990609078367    6.44651186553575    0.80174737433777
H        -1.56641809990157    5.40990858692358    0.51526635113060
C        -1.01628135837163    6.91847037074201    1.92344023970764
H        -0.40204202910315    6.25399065933213    2.51560542859263
C         1.43399873118913    8.45963445892092    3.45265653749102
C         1.93263525510937    8.48588551035297    2.15405944122700
H         1.25777863392529    8.64404895803633    1.32365046991062
C         3.28703025194094    8.31779617331039    1.92957369495099
H         3.66856820720495    8.34219669356080    0.91946455093167
C         4.14938577566235    8.12777941993116    2.99605344062140
H         5.20665537843187    7.99093101057912    2.82017139834883
C         3.66028803798638    8.11630388015167    4.29272111851627
H         4.33606842468238    7.97284781786222    5.12394614890884
C         2.30954750242999    8.29316325436113    4.52525159242222
H         1.92244866562957    8.30683179953873    5.53741685178579
C        -0.83930461545619    7.58921322320914    4.97097243864629
C        -0.13868560464934    6.41703815055218    5.23007522695178
H         0.81494456315277    6.23191212973909    4.75531968300015
C        -0.65927771817633    5.48075986492548    6.10654164123141
H        -0.10735768893949    4.57403410525921    6.30858082432625
C        -1.88045760277580    5.69966382169995    6.72073955702197
H        -2.27912037597576    4.96608562570203    7.40584325831242
C        -2.59061560005738    6.85883552220604    6.45236657587443
H        -3.54721666354403    7.02900229100412    6.92397644878590
C        -2.07234549782470    7.79734805656676    5.58122041949245
H        -2.61491696718288    8.70722358832162    5.35995266943947
N         1.96968311255825   11.13792114380301    5.54038489886663
N         1.34954750836611   11.22977298337664    4.43674028508008
O        -3.58376932765577   10.96292409850674    4.19420537181376
O        -0.04588284524944   11.51099920493303    2.20136781572224
P        -0.60320873396520   13.34521492384934    4.79643815862847
P        -0.30393544116377    8.87268393405501    3.78923896854332
Ru       -0.58219206173271   11.08606808730433    4.32622876699540

