104
CSD_code = GIFQOE | q = 0 | S = 0 | Stoichiometry = C55H41ClN2O2P2Ru | MND = 6
C         8.98427562808743   11.07378126356604    6.88793350488969
C         9.92519388732104   11.29727367120289    4.06357087889492
C        11.22803071843803   11.66340078687982    4.35847265828144
H        11.51920560471516   11.86131613209214    5.38170254473788
C        12.18555046071116   11.78180518740825    3.36004135183324
H        13.19337185396395   12.07488057184782    3.61916916098399
C        11.86952905959139   11.51708471262359    2.03938125908691
H        12.62718739976792   11.60704311334362    1.27429113386696
C        10.57462681989161   11.16701279178429    1.67889934102747
C         9.60697993759474   11.08352558334161    2.69774718600908
C        10.23808235100405   10.85494299420061    0.28387441751693
C        11.10142295965815   10.06833981269565   -0.47690088200162
H        12.00574042999614    9.68384759314300   -0.02631036804723
C        10.79859677048844    9.75444986652358   -1.78868107524161
H        11.47608062410233    9.13914961844596   -2.36376772293239
C         9.62966210308097   10.22269091098503   -2.36471477446891
H         9.39344020463614    9.97728108459961   -3.38998925257878
C         8.76508478932926   11.00590592448590   -1.61788036557399
H         7.85145891241621   11.37403006659452   -2.06313203150791
C         9.06492905783946   11.31984772080192   -0.30586002530026
H         8.39154170786552   11.93124610624432    0.27292992843241
C         6.24113540633607   10.36860245538515    3.24539438915961
C         5.51425382706886   10.27740995529224    4.47197561954365
C         4.13664718763386    9.96426227098040    4.37560861631746
H         3.56478654375479    9.89019408923388    5.28815298523320
C         3.54440587761714    9.76319891528553    3.15633475586204
H         2.49284224503676    9.52598314762385    3.09509340059851
C         4.29086146838028    9.86230403432757    1.97915776758423
C         5.62961624111662   10.16067342723249    2.00809608934689
H         6.22262415630162   10.23922828881534    1.11024073012589
C         6.46097815791627   13.40404859233395    3.67831226929420
C         7.02430803925112   13.53529386134218    2.40912125727327
H         8.10268717869810   13.57672659353372    2.30662009892498
C         6.20910589943527   13.60258009849366    1.29508539163008
H         6.64621658717781   13.71428016510623    0.31314206640900
C         4.83265794882213   13.51660872605570    1.43439461875939
H         4.19918374993089   13.55346900499043    0.56083583025720
C         4.27018021189927   13.37205371201034    2.69123730899375
H         3.19858809683943   13.29360856646392    2.79924737993081
C         5.07885279722963   13.31337790995379    3.81206411502869
H         4.64220873803859   13.18841777601187    4.79376886507515
C         8.78856149486982   14.44041974830834    5.00987134536266
C         8.66638513672208   15.57443614022150    4.21590545499029
H         7.81867277233529   15.69257722016045    3.55530323938581
C         9.63856461152645   16.55857151684272    4.26547441237736
H         9.54203989797827   17.43589726693949    3.64228135070199
C        10.72796975192140   16.42477781716167    5.10919395391381
H        11.48366491147343   17.19565323820340    5.14080310553038
C        10.84490921787543   15.30342168661041    5.91500003304675
H        11.68954964229093   15.20018817519374    6.58003718638782
C         9.87905414467622   14.31723260064557    5.86554732272012
H         9.95282444082283   13.43573366443631    6.48951742559378
C         6.56050307815502   13.71528633657477    6.49776857497930
C         6.08594887585685   15.02489290877240    6.48770571785055
H         6.29694145236977   15.66610723116071    5.64273400552574
C         5.34707365819500   15.49863554922916    7.55433709464433
H         4.97769376774565   16.51379147252447    7.54410089006142
C         5.08061607558737   14.67400912384948    8.63705946324458
H         4.50361497900388   15.04895742198786    9.46963695363366
C         5.55175446928122   13.37246808694924    8.64972825010858
H         5.34209867391030   12.72941778000429    9.49185631890684
C         6.29178499459726   12.89216190387644    7.58298812150757
H         6.65219930461719   11.87187257985709    7.57631853857176
C         7.76895204170189    7.77519296056141    3.86165507782094
C         8.20096688355292    7.83664350629304    2.53612593589865
H         9.15400183598182    8.29119189880123    2.29704447643129
C         7.40244564676702    7.33609531781836    1.52532579484467
H         7.74015846043487    7.39531022119773    0.50099276883404
C         6.16842346585141    6.77988299801740    1.82339455538703
H         5.54049029663838    6.40276632300225    1.03005797881119
C         5.73430265651674    6.71981294866366    3.13694958374691
H         4.76927769687350    6.29437335432706    3.36981512096361
C         6.52659624711685    7.22001346318693    4.15449187722173
H         6.18134290329361    7.18889980590713    5.17940442521453
C         8.25760195062810    7.72735834423367    6.66290921599838
C         7.34446205943003    8.28977885980283    7.54888350315585
H         6.90595391468737    9.25297677329993    7.31988615979737
C         6.98537917337959    7.61017528146662    8.69920091461058
H         6.27545185312931    8.04975199897883    9.38448167926043
C         7.53766673312283    6.37005344064652    8.97291068125225
H         7.26322146615615    5.84252860973620    9.87462442939384
C         8.44298316570305    5.80414965039836    8.08911996002866
H         8.87163096468269    4.83540199762496    8.30102756033205
C         8.80338746842641    6.47637636939394    6.93598370963673
H         9.51222722897549    6.03470671354271    6.24963191164108
C        10.42642852060410    8.09700370507987    4.92195554411030
C        11.39090145675035    8.78463809504918    5.65281608748663
H        11.07762015903345    9.60142580068165    6.28946601874345
C        12.72176495373126    8.42488089724425    5.56698561699443
H        13.46493191457712    8.96612260446506    6.13336564854263
C        13.10071038809525    7.37004325639452    4.75217699088543
H        14.14132819464239    7.09139443353526    4.67566321249939
C        12.14259054794788    6.66701079951925    4.04178947118594
H        12.43429114070154    5.83414993603443    3.41834067270091
C        10.80732304621341    7.02181605781550    4.12699588172372
H        10.06621339304793    6.45804248246080    3.57788538668268
Cl        3.50402824274403    9.60022913874217    0.45787630889375
N         8.31300650868067   10.75426970747985    2.37368260493474
N         7.56539885826740   10.67837632482105    3.39684163226551
O         9.47377699325637   11.13482542136255    7.93266442760002
O         6.09505671255487   10.47247749113102    5.59426459783595
P         7.55384062073196   13.10118682231878    5.09832369831492
P         8.70513185380425    8.64866931060156    5.15415403355149
Ru        8.25407539134313   10.91381030579145    5.19470566219169

