31
CSD_code = GIFTIY | q = 1 | S = 0 | Stoichiometry = C4H16N6O4Rh(1+) | MND = 6
Rh        1.38667975706636    3.61633192377807    2.50950350830872
O         3.94937343182250    3.60166986848557    2.05437188375156
O         2.86458280037215    2.17497422607531    0.83703125981288
O         1.76471901676921    1.27834627686297    3.69354076887112
O        -0.23046288783399    1.61149015691076    2.91698390655891
N         0.30677857028726    3.35448915541924    0.62732092862864
N         1.81121775328634    5.63870435675089    1.44492635163248
N        -0.35391156929835    4.46065896653539    3.80285031194368
N         2.37990719202493    3.95130098404975    4.43627359572279
N         2.96577305687102    3.02393289739837    1.67814763464240
N         0.91699982096277    1.90725376254109    3.12623666245774
C         0.13863397402512    4.65003458235064   -0.04875259294174
C         1.45103917529192    5.43163737568947    0.02872301067388
C         0.26103626243125    5.04216848193844    5.00990259242763
C         1.37940723717854    4.12315025374815    5.50259239569400
H        -0.59928782950310    2.90009954156536    0.75931576161750
H         0.85914757293373    2.72836667431625    0.03124467893954
H        -0.65197664091385    5.21024108870912    0.45839567541168
H        -0.14773383424328    4.52023009640677   -1.09688675399344
H         1.34676064664844    6.37999003320575   -0.50831922486087
H         2.24539420029578    4.85491903258777   -0.45293922612172
H         1.24988621183959    6.40222735853354    1.82054590215796
H         2.78545858378749    5.93355059563162    1.50510839917747
H        -0.94298430640450    3.67041438520897    4.07412088404016
H        -0.98053817995526    5.14285988311266    3.38113114740219
H        -0.46977737554821    5.18750122414896    5.81232255391282
H         0.68241820165004    6.01678125835594    4.74718530835956
H         0.96464191709385    3.14279439747080    5.75357399884536
H         1.82774735782538    4.54422402835841    6.40767004684292
H         2.99108519672963    3.16273719096149    4.66421554949325
H         2.98058468650724    4.77641994289249    4.38306308059091

