74
CSD_code = GIFVUN | q = 0 | S = 0 | Stoichiometry = C22H36B9N3O3Ti | MND = 9
Ti        4.44578469385582   10.45812579427996    9.37195875196973
O         4.24485124412992   11.18994441614702   11.03600572863049
O         5.60375090148470    9.17532327841472    8.93245081993064
O         6.15369291344402   11.64489158208466    9.15382213441648
C         2.24083416797568    9.99041535857562    9.28948124925284
C         2.44880481965759   11.49503219434492    9.66410060193774
C         2.19259109528105    8.95196027735099   10.39951404119827
H         1.70955628632219    9.34601487963452   11.30322029500845
H         1.59139625725651    8.08784821925707   10.07485415512509
C         3.83339144734802    7.16796531618013   10.22691918173081
H         3.19539881569539    6.41224070390921   10.71497906953346
H         4.87803775738037    6.91428604969896   10.41057522282756
H         3.66037152401203    7.14119710074414    9.15311042167339
C         3.80544114681486    8.50099252298694   12.17987694322871
H         3.10418814914680    7.83600092188014   12.71108608418503
H         3.71659926659518    9.51039235376768   12.57738060917688
H         4.82207615647480    8.15440235548800   12.37150505886914
C         2.97034659174809   11.75397032424986   11.05703980915024
H         3.03633048490435   12.84038872216008   11.26156145534863
H         2.35932058638824   11.31821277512631   11.87737178297140
C         6.93879236167743    9.04412393782276    8.91145770251717
H         7.22699675659949    8.13858032069713    8.33591953211054
C         7.58699077322273    8.95391138101218   10.28952085631094
C         8.65205250429564    8.08394730846837   10.49415061594795
H         9.00877530492201    7.47044531483988    9.67828682668542
C         9.24920372618261    7.98066388079670   11.73818422918902
H        10.07498164273029    7.29967644719720   11.88360127551000
C         8.78233044515158    8.74316481253581   12.79527627720899
H         9.24573082062800    8.66171419682566   13.76748804303882
C         7.71253306088557    9.60089949298062   12.60120463146350
H         7.33739409367336   10.19053512108663   13.42469091465466
C         7.11284344748599    9.70893716906398   11.35646569371163
H         6.26698374139991   10.37406145889285   11.21756480415358
C         8.14555991521290    9.84659648628674    6.89356042057758
C         9.22721357590538    8.97438919895487    6.81446237596090
H         9.66569317892607    8.58787553325785    7.72176498876773
C         9.74213701931197    8.61893554435125    5.58107205032548
H        10.58215673267554    7.94255816164182    5.52797633783480
C         9.18748068217891    9.12964208043362    4.41949680873945
H         9.59114530036021    8.84956917819503    3.45863961873247
C         8.10888998378991    9.99507821001993    4.49630794320565
H         7.66360241329338   10.38645807252171    3.59431479905196
C         7.58431879140405   10.35216765175131    5.72523289480867
H         6.72582183580824   11.00479238137463    5.78912364793681
C         7.14907281772011   11.43398885850169    8.43519266930817
C         7.25686870649134   13.80920806483029    8.02746179799688
H         6.20515069126906   13.71312165364579    8.29220170472688
H         7.34501725151499   14.30177157456013    7.05813759529508
H         7.76514608789347   14.41201584198326    8.78409844431065
C         9.19461137062128   12.44000708839393    7.44516873248939
H         9.70527667778000   11.55188293013269    7.80826281690452
H         9.72750442152857   13.32018086988708    7.80948171430636
H         9.22178914981660   12.44223832815958    6.35157779000230
N         3.56480953555761    8.50418154502913   10.74243431001483
N         7.60126394593823   10.17472789294193    8.15891850299657
N         7.84239973849732   12.48838446705212    7.94352739855194
B         3.35152521550671   12.28529509544428    8.52597784842849
H         4.00507006622051   13.21457526383144    8.89897985269607
B         3.70815400339938   11.09805915267882    7.29797312387682
H         4.62590794240786   11.17119615183658    6.53273065290180
B         2.96311821912944    9.62562293259930    7.83641996957290
H         3.26736476397836    8.49905223833968    7.59534529917213
B         0.87429990527550   11.07342324966423    9.20005675954885
H         0.04826401051905   10.96814169205854   10.03464128168287
B         1.59099611966355   12.58054188409891    8.64605714653574
H         1.21266533862124   13.59741832795448    9.10673418209310
B         2.36367393165681   12.30175662659938    7.07144427080330
H         2.44755547343824   13.16501819889288    6.27035261960631
B         2.09192969700456   10.61440959188351    6.63590339280240
H         1.97260026919294   10.25394966713285    5.51846039294353
B         1.18655088918999    9.85938161375823    7.94476219916348
H         0.48725966145390    8.90958600646684    7.89239077858548
B         0.79021142918533   11.52007758190777    7.49516653980683
H        -0.22294974413383   11.80525712242581    6.96746350824467

