82
CSD_code = GIFXEB | q = 0 | S = 0 | Stoichiometry = C31H41MoN3O4P2 | MND = 6
C         0.97107669437757    4.28368447501610   12.99593182688097
H         1.30323635213548    5.16076640329288   12.42337981122724
C         1.39882609297334    4.47229519024373   14.45146782747770
H         1.10982686938640    3.59924808305142   15.04177499759407
H         0.89738914798475    5.35155543128328   14.86409331341294
C         2.91209830859783    4.65507540806355   14.52528409977875
H         3.18965493130174    5.56346310331402   13.98717010382340
H         3.21790708199472    4.77700825797740   15.56651084898199
C         3.62849923832553    3.45833420305203   13.90764037810290
H         4.70800471965042    3.61598347878562   13.94118125426619
H         3.40370473852570    2.56043178454449   14.48924013711277
C         3.18011727738586    3.25168800755098   12.46414412165579
H         3.68198267459428    2.38064496687657   12.03797573670493
H         3.45652644158286    4.12368427334028   11.86769429977939
C         1.66777031390986    3.05972427579431   12.39809856590155
H         1.35098861686909    2.93758814562654   11.35968091286790
H         1.39617740183553    2.15759399909877   12.95140875652021
C        -1.22459561805957    3.23619634471933   13.55455477857954
H        -0.77306971871109    2.25015542141166   13.43105699891174
H        -2.24095820896468    3.19786982125751   13.16155312555298
H        -1.27578246155071    3.46197366785939   14.62417557203976
C        -2.43062512610821    4.52401524920817   10.95239592449733
C        -2.07979636470502    3.30091172324763   10.39046830416212
H        -1.13862962483401    2.84393728900800   10.66467639337282
C        -2.92491346021769    2.68258188498575    9.48758110309932
H        -2.64981450896502    1.73093075081230    9.05650690963882
C        -4.11778928830400    3.28788560513002    9.12608235047880
H        -4.77446588200291    2.80598473778489    8.41693695413412
C        -4.46223896866745    4.51781488726653    9.66339653154796
H        -5.38470572253936    4.99808819081084    9.37011949537486
C        -3.61879008988706    5.13653878099240   10.56664512018057
H        -3.87419243254479    6.10639154929479   10.97678168902708
C        -3.41319256878353    5.82890833253873   13.77543213893001
H        -3.85548435803210    4.96409426507500   13.27381901513101
H        -4.16705419341153    6.61827064758327   13.82574123202217
H        -3.15040968416050    5.53687927022980   14.79729763730956
C        -1.29231657307138    8.61528347760207   14.25260863264710
C        -0.95845495992111    9.96700243189471   14.27706695005704
H        -1.18446072877406   10.57947938575469   13.41199862209920
C        -0.33405422820212   10.51104920126764   15.38201298750862
H        -0.07645158568026   11.55997356720606   15.39707657504002
C        -0.02336165323358    9.70408525854783   16.46604629425157
H         0.47141423508051   10.12625270861254   17.32813572448661
C        -0.32949052335199    8.35411337764925   16.43713519423933
H        -0.06930100280819    7.72297955414140   17.27494705639112
C        -0.95634587107065    7.80774806377953   15.33109697099824
H        -1.17430928480816    6.74878177825623   15.29602280435176
C        -4.05810933886500    9.41114258175361   13.62067354975316
H        -3.86102456585447   10.48664597155597   13.59496480201865
H        -3.68992543009693    9.02006401516803   14.56869344838615
H        -5.13839769554305    9.25500547158031   13.57982883455862
C        -3.76947649417068    9.10327358789649   11.17099529438711
H        -3.18670769306518    8.43893247235328   10.51937605068886
C        -5.24849361388285    8.89325149463092   10.85052624370917
H        -5.55067858818446    7.87991347492226   11.12651092029721
H        -5.85981843131622    9.59729392534777   11.41959731955330
C        -5.47329943630902    9.12693030554970    9.35849154330499
H        -4.88697655459178    8.40381689135071    8.78706044492894
H        -6.52688359466353    8.97485025886041    9.11437848439994
C        -5.04853160214992   10.54135124836861    8.97334732167203
H        -5.68089558654832   11.26353742130846    9.49613229076925
H        -5.18831376130006   10.68986868845956    7.90119979975973
C        -3.58809280080637   10.78659075244658    9.34258270462172
H        -3.30701479602238   11.81125644603770    9.09263219811054
H        -2.94685432929611   10.11500675421242    8.76708155351207
C        -3.36276651092272   10.53679202251960   10.83081647744533
H        -2.30522907334049   10.67261464411753   11.07730772689988
H        -3.95150938853262   11.24904110933088   11.41348944313098
C        -1.37751445080430    7.21653278144017    9.52453150108623
C         0.28049852516494    9.21866082687455   10.52202730179246
C         1.20426823213557    6.59981345221164   10.02153239892123
C         1.01169122040616    7.62796339405678   12.59023907922713
Mo       -0.20690176339224    7.42078506665573   11.07651491337126
N        -0.47359031236564    4.23976088966604   12.82594283088707
N        -2.26521351984158    6.31698649422211   13.03234499960588
N        -3.42211645883996    8.69571820124550   12.52894905056620
O        -2.01199772094785    7.07156076028235    8.58414798586897
O         0.52044173887813   10.29814312381853   10.22990394581310
O         2.03666742243731    6.06660989146694    9.44687888218666
O         1.74161419887261    7.78729134477329   13.45443614746145
P        -1.22955489249560    5.44329318317576   11.96959831643730
P        -1.92013937933096    7.95855434022835   12.67682011595589

