71
CSD_code = GIFZAZ | q = 1 | S = 0 | Stoichiometry = C32H32Cl2IrN4(1+) | MND = 6
Ir        7.37925275586225    3.30837622282597    5.09174882074547
Cl        9.02539172430687    1.72742444231847    5.51164349181239
Cl        5.74880467799122    1.70972485978277    4.67794785596081
N         8.82879977303129    4.68182697639073    5.61398994059703
N         7.11824598953584    3.30963292090971    7.09121819718047
N         7.64050880670848    3.30495209814889    3.09251268303238
N         5.91617052431341    4.66521545678285    4.56426160205512
C         9.68821090939592    5.32356797493747    4.84956253743824
C        10.76537250832463    6.06891200654585    5.33882172319411
C        10.95591655841621    6.15103048652849    6.71526831890163
C        10.04260401400088    5.46639255017219    7.55153059150985
C         8.99613977133897    4.74138668599080    6.95197921848697
C        10.12549221424259    5.44172773361980    8.97515114958289
C         9.24249134623020    4.74545337129050    9.73300011412172
C         8.17866834605991    3.99305443014986    9.15265308951663
C         8.07134110077681    4.00530078340625    7.75025830572253
C         6.26696488456423    2.58909977584917    7.79501624659524
C         6.28706534862401    2.50801545440000    9.19190616438457
C         7.25253274234509    3.22179889253183    9.89573582329568
C        11.67708908104630    6.73860213097879    4.35942904072902
C        12.08655738413435    6.91598342709242    7.31827150596963
C         7.34495664414810    3.17784528841224   11.38481790780201
C         5.27392131107128    1.63906887556415    9.86616860320980
C         8.49855232845141    2.58960084943686    2.39166176800576
C         8.47941953178386    2.50284410654021    0.99512161708199
C         7.50764966680101    3.20504821325269    0.28828309172895
C         6.57419151107535    3.97051120500788    1.02822004099763
C         6.68117563740235    3.98923846183343    2.43058288805563
C         5.74903652815700    4.71914708082064    3.22600034660130
C         5.50291394802695    4.71005249008491    0.44503623127777
C         4.61325447004183    5.40080516501302    1.20014297309446
C         4.69581855633730    5.43199275298365    2.62365533832706
C         3.77544636468564    6.11025924773116    3.45737005769109
C         3.96468616723332    6.03220358002501    4.83424105130311
C         5.04913057580966    5.29943999324102    5.32633920344458
C         9.50012016138651    1.63996327498975    0.32453829340656
C         7.41575255503149    3.15309215933311   -1.20054080569268
C         2.63802960178293    6.86313704675999    2.85193544128728
C         3.04383001151937    6.69290454924285    5.81116038246737
H         9.53365039156231    5.24869304881643    3.78168818765509
H        10.92171024064879    5.98495455742359    9.45706606496195
H         9.35129956748407    4.74578997942959   10.80518919776092
H         5.53586836762484    2.02903047692140    7.22638093170923
H        11.35356313613771    6.54233063341941    3.34108884027850
H        12.69499907712551    6.36933855000857    4.47118368842334
H        11.68760505249908    7.81641868138070    4.51403406357931
H        12.74538865297778    6.23827922308133    7.86007903676037
H        11.70969055554232    7.65241646524125    8.02643196498350
H        12.67155370793063    7.43143356075660    6.56578298449492
H         7.34831401266083    4.18594656422812   11.79607437295093
H         8.27259836023687    2.69081043297063   11.68422004792359
H         6.51731076131594    2.63121665537413   11.82144020637832
H         5.76513197049833    0.86450115629500   10.45229459720248
H         4.63907734170742    1.15706311937332    9.12864941343296
H         4.64362760202947    2.22330630314592   10.53518916668815
H         9.23458114928241    2.03835872482313    2.96255638918297
H         5.39354184137698    4.70456510264192   -0.62708046370889
H         3.81137617137488    5.93363897573578    0.71600682868125
H         5.20337492468142    5.22866163845312    6.39453479314595
H        10.12351850719344    2.22608548822755   -0.34927054056887
H         9.01553777424859    0.85693677898051   -0.25589433083114
H        10.14095698609788    1.16889618263383    1.06396322463708
H         6.49997423548378    2.64190267877381   -1.49710621197536
H         8.25632657056917    2.62460953685157   -1.63532967892271
H         7.38749907168788    4.15897077854094   -1.61645159281745
H         2.05951289095342    7.39074962549487    3.60103861041849
H         1.97500627393992    6.17472374162233    2.32889132596817
H         3.00631786168497    7.58747666064991    2.12719598581094
H         2.02972345175914    6.31452199622984    5.69566734087984
H         3.02397821053903    7.77073418521646    5.65746626447052
H         3.36587924914994    6.49880547627231    6.83037843946934

