59
CSD_code = GIGBUW | q = 1 | S = 0 | Stoichiometry = C24H24IrN6O4(1+) | MND = 6
Ir        6.35295709553659   14.79210684895630   10.07585847077402
O         8.44912643171975   16.39865011298872   10.57032059895593
O         9.00243044622234   14.41725600506532    9.91697604137024
O         6.58622776565913   16.51944438326578    8.03087674200184
O         4.97928914789490   16.98985951165694    9.39303858758078
N         6.40109425638305   13.74455760515511    8.22853777359925
N         4.26679674338785   14.16819492057729    9.77539255857356
N         6.85530587841806   13.13669427182930   11.43334382372565
N         6.18406752103793   15.65512145886200   12.00999830896930
N         8.19283802889757   15.28252659822912   10.18102186669561
N         5.92908866845743   16.32827483490386    9.02794193800008
C         7.49687404502748   13.53603047845909    7.50833525223007
H         8.43898015526983   13.79075830463756    7.97345016719509
C         7.46981799433369   13.01011056693229    6.23161688110227
H         8.39192699669663   12.87115304733413    5.69127627742710
C         6.24705978131921   12.68161152000395    5.65424007635082
C         5.10763100453896   12.88142522946185    6.42847719768614
H         4.14679665578119   12.62689934329609    6.01318916738484
C         5.20145036115338   13.41429016856109    7.70812475173429
C         4.02086686776010   13.64700924644957    8.56076929534463
C         2.72189552345395   13.35714685924073    8.15906416761896
H         2.52592841708168   12.94151010919863    7.18476712311276
C         1.64799694529547   13.61221584506196    9.00661861026945
C         1.93599790424016   14.15417863408483   10.25661849819668
H         1.14580777331979   14.37712133032446   10.95509735916164
C         3.25072072785112   14.41346382805349   10.59076135879418
H         3.50183630651332   14.84081755364719   11.55116275137857
C         6.15739233381662   12.16076456717354    4.26416390542454
H         7.02054818775140   11.54595474004483    4.02298218276346
H         6.14586725378585   12.99987368267030    3.56783016369078
H         5.24817592109106   11.58530135473285    4.11258571784030
C         0.24824090999138   13.34151379101667    8.58035227664513
H         0.20657631147297   12.54499042240654    7.84162330412991
H        -0.17063179842423   14.24144424112268    8.12827501349078
H        -0.37432575615307   13.07827124153223    9.43167722322001
C         7.18840640517337   11.90523081285625   11.07307455826194
H         7.02024464252889   11.64898431190859   10.03674158846780
C         7.72711411433357   10.98299946011914   11.94852574506333
H         7.98508019720609    9.99507697441742   11.60286228946100
C         7.94321322470623   11.35178957554042   13.27372272383103
C         7.58396045181162   12.64460843890985   13.64335394235742
H         7.74574100305595   12.95686463490258   14.66154204989793
C         7.04422210480699   13.52000018081482   12.70815964126322
C         6.64956647156783   14.90437471969094   13.02921009790136
C         6.73932961252699   15.43027085400572   14.31198787281721
H         7.11385403007727   14.82783319933067   15.12270329292576
C         6.36133774521492   16.74465785821957   14.57140947312166
C         5.86573219656097   17.48353243366770   13.50135653974062
H         5.54641903614886   18.50426990762391   13.63476827479635
C         5.79752533213200   16.90237563129011   12.25036059091880
H         5.40926727400142   17.45992382143993   11.40921047392159
C         8.55942233639907   10.41400643537978   14.25075709847308
H         9.64451633997223   10.51470066634697   14.21021168900693
H         8.31329644464058    9.38308131831401   14.01058323541128
H         8.24108664208845   10.63504661752454   15.26607911184081
C         6.50254802474360   17.33805492381240   15.92781432118274
H         7.45085043163154   17.87367715202538   15.98693241868569
H         6.49980875822722   16.57285310909815   16.69956850191818
H         5.70840437384886   18.05404430585680   16.12369903632031

