35
CSD_code = GIGBAZ | q = 0 | S = 0 | Stoichiometry = C19H13O2V | MND = 9
V         9.77559881871176    2.70951212461920   -0.84707890548514
O         8.23821987829157    4.28130631993022   -2.81466417324481
C         8.82461116919873    3.69537597080000   -2.00701949068720
C         8.26889945344232    2.70952052654902    0.77582496586803
C         9.07756556183533    3.85351645163903    0.86690246424505
C        10.40141312459182    3.42513017545638    1.18845605916766
C        11.57353911466501    4.12635657407428    1.49674517678530
C        12.70914633959128    3.41066236720285    1.80702458810933
C        11.05011096332591    2.70952529360084   -2.55701758438579
C        11.69658987067156    2.70952159277534   -1.48442607969581
C        10.82126266398385    2.70951940770155   -3.96983517429892
C        10.70574826193615    3.91576558279638   -4.66430533211873
C        10.48670299953942    3.90901107112482   -6.02845451857530
C        10.37536758844594    2.70949679941044   -6.71297044038708
H         7.19077137898284    2.70953524922677    0.66644458842120
H         8.72066306956472    4.87521688409885    0.91329754083295
H        11.57555350744848    5.20922362712286    1.51869217274144
H        13.61953356698217    3.93375783015703    2.06386262228678
H        12.65144937903907    2.70952759316587   -0.99970222512146
H        10.78704542609062    4.84803540618736   -4.12237455041013
H        10.39599970817388    4.84467355255341   -6.55976954679700
H        10.19783630663998    2.70948759257266   -7.77791793016718
C         8.82450311558726    1.72371111103571   -2.00698202006094
C         9.07753403005632    1.56550429731479    0.86690407987073
C        10.40139064426111    1.99386018110403    1.18846916267673
C        12.70911962485268    2.00828158383831    1.80705247344560
C        10.70583254666100    1.50326195583351   -4.66430004418169
C        10.48678781583522    1.50999345461847   -6.02844868541335
O         8.23828884305861    1.13755267896293   -2.81461048433854
H         8.72060521539257    0.54381249801720    0.91329304295728
C        11.57349442753140    1.29261070559120    1.49678370683908
H        13.61949154256267    1.48516662107112    2.06390439466991
H        10.78719090373347    0.57100071897603   -4.12236294603654
H        10.39615110119843    0.57432166158572   -6.55975867984031
H        11.57548203811702    0.20974453928582    1.51874177232892

