128
CSD_code = GIGKOX | q = 0 | S = 0 | Stoichiometry = C44H77N2O3SiY | MND = 6
Y         7.18809834410039   10.32900054341730   13.32931959256149
Si       10.41276690394899    9.28233412594673   14.30242772268091
N         4.99764559056339   11.35294019883231   12.46784270658136
N         4.78557522175866    9.05890175973815   14.30742017373047
O         7.05035079533564   11.92250617735476   14.68289253570479
O         7.34227096092851    9.61131454995935   11.35893578375737
O         8.41313416646037   12.36868553687184   12.05785149289004
C         6.03350246732078   12.58483151195000   15.19357407878850
C         5.96242655498710   12.94858747736185   16.56805076279155
C         4.81844232309742   13.57101506251904   17.03090359114842
H         4.75699999914231   13.81852692632724   18.07672660560045
C         3.73477312980028   13.91044248737416   16.22383862899419
C         3.84946917451204   13.63383671162855   14.87320456169831
H         3.07006776453580   13.92061982413397   14.18306042045454
C         4.96515767953384   12.99186498505377   14.36086690559537
C         5.07175793356973   12.77046378343157   12.87598543235135
H         4.27020551610471   13.33693486325101   12.37013743720616
H         6.03491199851152   13.16223529720991   12.53047450610480
C         3.70435377830834   10.78554629029794   12.86619720219615
H         2.93439038512434   11.56985767139446   12.90568506071162
H         3.39855534676811   10.05685850714645   12.11296687372010
C         3.75258514502370   10.09826619446962   14.23183530334652
H         2.75159607551856    9.67871687820129   14.42561141801457
H         3.96625233481856   10.84730075838889   14.99790461687683
C         5.13058169960886   11.28959386824395   10.99578922729835
H         6.06722184092774   11.79333354527012   10.72745777428504
H         4.29611226946204   11.83710473015549   10.52482144740324
C         5.17319688564745    9.88329834437433   10.46095341538880
C         4.07879250576610    9.36250701191099    9.79456082654083
H         3.19375518970663    9.97892769950833    9.70131272421565
C         4.10253663823939    8.08885388393498    9.24500584427234
C         5.31409453599063    7.40926085483298    9.28918288738211
H         5.37591483762786    6.45167584953510    8.80588802045082
C         6.45028182399457    7.90144141130394    9.91024613949727
C         6.36360316796398    9.13220674226090   10.61678434930367
C         7.78588629937705    7.17345627933325    9.78601218676610
C         7.72424280768437    5.94058979883403    8.87722055239171
H         8.72142299096906    5.51160577786126    8.79530052532803
H         7.38919862667455    6.20353007436919    7.87644574729363
H         7.06693035215112    5.17629938348533    9.28614126159897
C         8.28310012095564    6.71785901547463   11.16180570483172
H         7.60063899250409    5.98334172080751   11.58501593401122
H         8.35786238437965    7.57086852486275   11.83075585036071
H         9.26697008016685    6.26063768652920   11.07205567910224
C         2.84375705454970    7.51457596634342    8.61247885143641
C         8.79763263276731    8.15209598906636    9.17360719495530
H         8.88017897196459    9.03362192969061    9.80092513898201
H         8.47149206581348    8.46015380837286    8.18183620452298
H         9.77825470872140    7.68741649879477    9.09167658664800
C         3.04248627907192    6.09233733053554    8.08176045132827
H         2.10547756764638    5.72499960805244    7.66689474341502
H         3.34664021971505    5.41696232948724    8.87823830435043
H         3.78941704734040    6.07095071838187    7.29192463725548
C         8.58418287239390    8.85873742674383   14.49622005428813
H         8.34549638620552    8.88241196948674   15.56547935157637
H         8.44106260472329    7.81664860638119   14.19001228257209
C        10.96240457264456    9.06065648175705   12.48029999512108
H        11.09815361078286    8.01169130506413   12.23939270222518
H        11.90325042160883    9.56260713875443   12.27418923283573
H        10.20999558358118    9.45674635275434   11.80463721369170
C        10.69955156025589   11.10320762100069   14.82048872956355
H         9.91854251639461   11.73145056772730   14.39921687237638
H        11.66273356172560   11.48039902482961   14.48854156616290
H        10.66246914751263   11.21120230961348   15.89952836482160
C         7.14943556241500   12.69818187761235   17.49384208881474
C         7.43852793732336   11.19531005624500   17.58646601483709
H         6.59048090456887   10.67380340691433   18.02855231252850
H         8.31340156366119   11.01746557436914   18.20939728262040
H         7.63194199711310   10.79428352227459   16.59453193185666
C         8.37157816990608   13.41862025370406   16.90925887858591
H         8.58976193069714   13.02287075782047   15.92290298067915
H         9.24193563682141   13.27069202384712   17.54577073696460
H         8.17610594858129   14.48651858875576   16.82739944126331
C         1.92478662030788   13.64939574766475   17.91468887664682
H         2.64480613748491   13.44769065646011   18.70272551114824
H         1.63355063846687   12.70019811045421   17.46884992989633
H         1.04466566110990   14.10438321494641   18.36511841574464
C         6.93223505038340   13.22352207751967   18.91726864647247
H         6.75224940686633   14.29623135149343   18.91917442804083
H         7.82833747994082   13.03346339195153   19.50553321141346
H         6.10113643601235   12.71878728818812   19.40545942492329
C         1.73424481209425    7.47313679333617    9.67425630744483
H         1.50312620409643    8.46930594490104   10.04219921355835
H         2.04682772909449    6.86141463911439   10.51853392234928
H         0.82498301388328    7.04589620670683    9.25588975708454
C         2.51651659481078   14.57745216804583   16.84407283659981
C         2.93511290695215   15.90691875593474   17.48714987296817
H         3.66849172419203   15.75086050565790   18.27310773093102
H         2.07065140066437   16.40582231618611   17.92123491514353
H         3.37407152856466   16.56288079087757   16.73835529317677
C         1.42120223998751   14.87209546421497   15.81524188730085
H         0.56937337833297   15.33321058692998   16.31182208587451
H         1.07781800467459   13.95703843179856   15.33756418600783
H         1.77755938022863   15.56034492567150   15.05233700503546
C         2.40486107173389    8.40379822501788    7.44112291593762
H         1.51038956002869    7.99727856899079    6.97295566082938
H         3.19409662330569    8.45446745879159    6.69454389371985
H         2.18575429708604    9.41484162046214    7.77256232167893
C         9.18647161488649   12.23606553684986   10.87293967841349
H         8.75140399332908   12.86201191705910   10.07813131491121
H         9.15809504733228   11.19123137226552   10.56725069292037
C         8.75949936539847   13.65193633026794   12.57104376265455
H         8.50628294725028   13.66717503229161   13.63120674553422
H         8.16941137588876   14.42197779938909   12.05075932950806
C        11.58827845652094    8.20079559870151   15.36711605478436
H        11.36078178168171    8.29728033919709   16.42381564584825
H        12.62700510652555    8.48334913003557   15.22918489690333
H        11.49814094686162    7.15056687156325   15.10873559461198
C        10.25812307129213   13.85073297901376   12.27983769384919
H        10.85298126176171   13.73357123771378   13.18274115800032
H        10.44182617784097   14.84471976975538   11.87542147697240
C        10.57554130100164   12.74767725934158   11.25704448165727
H        11.12651798986236   13.11677459858336   10.39516303632803
H        11.14337612598640   11.94587990466829   11.72579065296565
C         4.35422772915620    7.88027738852512   13.53841151388893
H         4.22197106560647    8.19453810153255   12.50070740146099
H         3.38149469825368    7.51419607189846   13.90475719738932
C         5.07542706478728    8.73956677745992   15.71604315487291
H         5.40238823993479    9.66879149076447   16.19080763059700
H         5.91392747242523    8.04026772622560   15.73680718296432
C         5.36618428713196    6.74396395391581   13.54232335807793
H         6.35029435019591    7.13548116874428   13.29172598624027
H         5.08254407493674    6.01534405011683   12.78626994061903
H         5.41308106633675    6.23700446274509   14.50302051786755
C         3.92295497254247    8.15427154239718   16.53867759733691
H         3.08005242362077    8.83879674089665   16.58487632794446
H         4.27207996408858    7.98216383790244   17.55368197866184
H         3.58290545110238    7.20405639935693   16.13540008881004

