91
CSD_code = GIGLAK | q = 0 | S = 0 | Stoichiometry = C32H53N2OSi2Y | MND = 5
Y         6.63088150041121    5.48629127358895   17.01102925070138
Si        5.19404356302523    7.57332748447284   14.46938337660364
Si        7.28595512717886    7.71482836746710   19.93088374507921
N         7.74452435949497    3.98684232164664   15.46677038571818
N         5.66284491917905    3.23239022150250   17.23381172731720
O         9.12198524229307    6.24517375344102   16.08533165184244
C         9.84845230993897    7.41903771793264   16.40399974640453
H        10.47110461445198    7.27271846467421   17.29229055293073
H         9.10533926065196    8.18641797142839   16.61114707943023
H        10.47383822455283    7.73414116390053   15.56231151055858
C         9.87103760351165    5.12321424480190   15.74055307196191
C        11.25309589351147    5.08633128892978   15.74361341911942
H        11.82889759702704    5.95847891821861   16.00835982276631
C        11.92941106440610    3.92171139250167   15.40599186499897
H        13.00828989345153    3.91435103361190   15.41064054320863
C        11.21738094987027    2.78309797685951   15.08299020831655
H        11.73566409068976    1.86722104159269   14.84085085344457
C         9.83690698180647    2.81173034806513   15.07568654777566
H         9.28010487404991    1.91256872227742   14.85990034585684
C         9.12522767461228    3.97658981534164   15.38252890332755
C         7.00797608100100    3.29286405305439   14.59461997051029
C         7.49613408716035    3.06027915249259   13.17943423088377
H         8.38466325980456    3.65050982707782   12.96649871557823
H         6.70962106037268    3.33546029254364   12.47872585317061
H         7.72864063186937    2.00920707606890   13.01404706280330
C         5.77500745264148    2.73773355487380   14.90747234452466
H         5.25504387716128    2.23685383608713   14.10272659831787
C         5.24615404705717    2.54797482998812   16.19847665883435
C         4.20259928465333    1.46428348778766   16.33959228491220
H         4.47843802199637    0.58798297166881   15.75729255115544
H         3.24730045865478    1.83086979755894   15.96420384512104
H         4.08181569900051    1.17788841638654   17.38194112187939
C         5.39197210611078    2.82487203901077   18.55686373475683
C         4.26161755123823    3.27937820029528   19.25091809887908
C         4.12273713656579    2.95531111922717   20.59318027948574
H         3.26127743532217    3.30728649815536   21.14056464694913
C         5.06933759705749    2.18606201435768   21.24091352874823
H         4.95126907175483    1.94894855450730   22.28791344387786
C         6.16409185522219    1.71039620757517   20.54203616887066
H         6.89156559304009    1.09953030857354   21.05394650385967
C         6.33769746066701    2.00509495052776   19.19936243413654
C         3.20905173826486    4.11600382639833   18.55845730937370
H         3.47432743980866    4.20113826328062   17.49705952600308
C         3.18112768893605    5.52511935994940   19.15433598305391
H         2.89062183145185    5.49401283932495   20.20195648146045
H         2.46802168429188    6.14900223404094   18.61905283748558
H         4.17249604772501    5.97650271562520   19.08057464805907
C         1.82818541719403    3.46162113885983   18.65103835368715
H         1.85731836030229    2.44401464537433   18.26783642460106
H         1.10617173172092    4.02984599507969   18.06814321580111
H         1.48140885558806    3.42757725926847   19.68069046462860
C         7.53652956149980    1.48409230252709   18.43608730847305
H         7.31923700969318    1.55409149200082   17.36570144741389
C         8.75712399919271    2.36420262121880   18.72064743459329
H         8.98622031646324    2.36597132139944   19.78463091411597
H         8.55937878447065    3.38968786497856   18.40121189972065
H         9.62414670512871    1.99661157108909   18.17488264243132
C         7.84044501262094    0.01969110930462   18.75545298213218
H         8.22902905537314   -0.09458770591796   19.76417372398813
H         8.58980553667109   -0.35974579997415   18.06383780611606
H         6.94277707857554   -0.58750571348436   18.65937653195737
C         4.91245624047990    6.91652124279534   16.21075782710817
H         3.96536551470166    6.36152569143338   16.21291243709262
H         4.76194568178416    7.76137392759629   16.89379243775422
C         5.31933054205793    6.09590985530335   13.25850422196576
H         6.30387084296512    5.64163710745464   13.31656036565791
H         5.15743335997676    6.40140468478884   12.22931832073119
H         4.58677861771781    5.32864337002034   13.49334738674298
C         6.85779272270858    8.52136464035929   14.37569474506338
H         6.90714780279254    9.31784387089966   15.11217538824575
H         6.99835145038991    8.97518101654146   13.39951596150332
H         7.69323703495558    7.84788168081640   14.54797660560974
C         3.83227586648197    8.75738344979467   13.81885770726551
H         2.86550866561733    8.26439559090897   13.79206868971513
H         4.04804566747293    9.11025525088974   12.81491593717723
H         3.73562111130318    9.62916401885854   14.45837327431529
C         7.42075513591608    9.11794598242696   18.62406247695162
H         8.45134862121126    9.42470947082378   18.47246234179286
H         6.87196716953209    9.99759713430616   18.94627853860073
H         7.00950251506494    8.80835230199597   17.66417229202507
C         5.56677419878256    7.89210708224141   20.75572152489588
H         4.78772639343492    8.07164623200504   20.02195993760579
H         5.55688953004263    8.72616024560131   21.45052869511743
H         5.29952461019661    7.00030882120137   21.31307801910954
C         8.58957990834038    8.12282899923641   21.28092991764222
H         8.51052905749187    7.43853630446310   22.11983605216838
H         8.46843373138777    9.13046185173321   21.66680179430996
H         9.59981183845709    8.04236224007431   20.89033459464294
C         7.51977021924559    6.01133177595454   19.15481508036902
H         7.13755267045912    5.26302488666856   19.86486014750154
H         8.60220391176696    5.82554322255992   19.08633466150530

