55
CSD_code = GIGNAO | q = 0 | S = 0 | Stoichiometry = C21H27ClN4ORu | MND = 6
Ru       10.60629288181432    7.01150513041964    2.13142377561524
Cl        9.24359889542247    5.24441502250215    2.96527303426557
C        12.15367937262776    6.19921946262563    2.71482325274634
O        13.10396711075617    5.72434149512285    3.17098264409701
C        10.42823234245657    6.35897475975320    0.28478238518520
N        11.04576137331894    5.53668120137496   -0.58691642402825
C        10.41394321520321    5.57425466193487   -1.81436387968837
C        10.66847940568403    4.92606586192087   -3.01352736785399
C         9.83773004095808    5.19304279716660   -4.08776231663155
C         8.78182824125743    6.08611320867140   -3.97763060233302
C         8.51412083887758    6.73896677076351   -2.78566589951614
C         9.33263345678287    6.47271284788644   -1.70123278034117
N         9.36066806136967    6.93149687563630   -0.39535703325958
C         8.51100294755674    7.73554493641000    0.34231243698681
N         8.94167052813645    7.85067159083042    1.60864631130382
C         8.19924265618301    8.46530963247030    2.52803826369171
C         7.01701394303322    9.09942247185515    2.18692825322392
C         6.59409488913434    9.05083818309767    0.86384495645035
C         7.32914213602332    8.33935710312913   -0.07053403233786
C         8.67803229639349    8.27394586705453    3.94101659610074
N        10.14401653352535    8.14660076692280    4.03495702985466
C        12.18858322784717    4.71710715484397   -0.22755890078252
C        13.42187373378598    5.11143489065766   -1.03599892233617
C        11.84637880109723    3.23224092977326   -0.32571749594232
C        10.71507585350589    9.50480865214407    4.08945627494391
C        12.23036984255545    9.53825127244920    4.23380661783624
C        10.50850208700486    7.34705632871442    5.22276065069365
C        10.07325674546572    7.91295067980018    6.57513228645783
H        11.48518497171831    4.23328603169672   -3.12520451494667
H        10.01869818102283    4.69854747171678   -5.02974427766236
H         8.15561462299278    6.27893383828719   -4.83493294241661
H         7.69334626926065    7.43335040660107   -2.73288278577360
H         6.43054698342221    9.60330874012753    2.93852435757926
H         5.67918846070197    9.53941539245611    0.56774891132883
H         6.97716030315126    8.25272403060927   -1.08227128942147
H         8.29838443400907    9.07765432324088    4.58807219639468
H         8.24056942843544    7.32114533487931    4.27066882000031
H        12.37961836983862    4.95372017251507    0.82550312127527
H        14.28730604007467    4.57523161073086   -0.65735059259102
H        13.60174953328605    6.17826709572508   -0.92644269876448
H        13.30688308894830    4.88156040552476   -2.09126029493841
H        12.67741868291105    2.64454951745081    0.05396213011188
H        11.64362423612048    2.92725911788546   -1.34838704416554
H        10.97019197766370    3.01976563505494    0.28226410810511
H        10.25962024729515   10.06570552206619    4.91961238477034
H        10.43836943567278   10.00722535227504    3.15730647963487
H        12.58373426104071   10.54824400727968    4.04080636208429
H        12.54799001524801    9.25354133714423    5.23316728912856
H        12.68562610238069    8.86620842795188    3.50751681840664
H        11.59403275157458    7.22115455496136    5.21840911824195
H        10.06125659595641    6.35606868417851    5.09351855980168
H        10.36799929111281    7.20970636365139    7.35000061668883
H        10.55030811378900    8.86592882245457    6.79189245919831
H         8.99458128398965    8.03779020751284    6.63261100279004
H        11.40220486061170    8.21017704007313    1.59417259072934

