71
CSD_code = GIGNIW | q = 0 | S = 0 | Stoichiometry = C29H35ClN4ORu | MND = 6
Ru       16.15204772547748    2.90884328737304   11.06811497945160
Cl       14.00700495419821    2.78152872069278   10.05237225225908
C        15.40719757812042    3.13088245105523   12.73822163915914
O        14.90321339169993    3.34144897697720   13.75465611456440
C        16.33004264600873    4.79761482352338   10.67113260508568
N        16.09376248580780    5.97603290351221   11.27161795835559
C        16.50186711444965    7.01624678986997   10.46824593141173
C        16.45620086593142    8.38328409324926   10.67881118617518
C        16.95944367044815    9.19562193315099    9.67755514667359
C        17.49053626638919    8.65343211160261    8.51409582478310
C        17.53582757694464    7.28393890875104    8.29881946322149
C        17.02905991965526    6.45827828816526    9.28770610031564
N        16.90346299028946    5.08554871974132    9.43955422031119
C        17.13842056245128    4.00507769728133    8.61353081494944
N        16.82618261533453    2.84651583728385    9.22436169947303
C        16.84250493832261    1.70719262371576    8.53849004913111
C        17.27758739083772    1.66131907422954    7.22310695954976
C        17.67483422781313    2.84033194392119    6.60703485117772
C        17.58215276220164    4.03705588266592    7.29722635474053
C        16.21450232950367    0.52739461756321    9.22642726354891
N        16.31469041093225    0.53446845477899   10.70308825116355
C        15.48535995116039    6.14335502546510   12.54547917432445
C        14.09873263177356    6.26640174530309   12.62143579999870
C        13.52894525065824    6.44199740550066   13.87226557894618
C        14.30531669699351    6.49444988414515   15.02218791728728
C        15.68252507812277    6.37196505158316   14.91071475606229
C        16.29250787928889    6.19299009105207   13.67892335761664
C        13.26543672796243    6.18037824824437   11.38242555160842
C        13.65286541898640    6.65675252020120   16.36093451597626
C        17.77517661360541    6.02968453521557   13.54751414060461
C        15.09192426045459   -0.16379496263214   11.21664781925671
C        14.97746923358106   -1.64048157263283   10.81862594896855
C        14.85163877538958   -0.04933996320726   12.72328594611075
C        17.58671254151384   -0.14006116911592   11.08656940509205
C        18.79452684615448    0.43706475168610   10.34183520694977
C        17.87722923085516   -0.04557876351370   12.58469124415705
H        16.04355345064453    8.78597652906266   11.59055976321924
H        16.94174641273683   10.26720388381171    9.80293136810048
H        17.88028260526619    9.31336806224953    7.75432208212200
H        17.96270282681040    6.90162721395451    7.38701882122424
H        17.29029465988214    0.72543759967234    6.68686703197331
H        18.02370893986013    2.83138123068115    5.58641213927658
H        17.83115963991199    4.96538263733715    6.81577153448954
H        16.60453080453701   -0.40846321433440    8.80220143057571
H        15.15136746305189    0.59788105374270    8.95904637160823
H        12.45499574641122    6.52809061640421   13.95400038317070
H        16.29422970283164    6.40317834000144   15.80080481434053
H        12.21790579410460    6.35950725880370   11.60773162024357
H        13.59463873544592    6.90471224088110   10.63697597733976
H        13.35664459829347    5.18507930900132   10.94490095007346
H        14.38397374641072    6.90814976888934   17.12452875499175
H        12.89332632346106    7.43531164290281   16.32854692921556
H        13.16456834874429    5.72590955818084   16.64706202082277
H        17.99306542275137    5.06946657533716   13.07659984758608
H        18.19790339831832    6.81755229380471   12.92362855417163
H        18.25322542755336    6.06158363190170   14.52237278462023
H        14.26208642847783    0.37463354495720   10.74337783951999
H        13.98727999854113   -1.98958106247380   11.10176373471698
H        15.70557501780783   -2.25674485469594   11.34228324437347
H        15.08841250827145   -1.79545014977243    9.74823216681686
H        13.77887549073626   -0.05593301221222   12.90434444621120
H        15.28390714269844   -0.88006866115868   13.27442780755299
H        15.25189716757235    0.88459008423878   13.11013236661075
H        17.50963420145187   -1.20159478463336   10.80277247217779
H        19.69634554530352   -0.05305042805348   10.70213500226331
H        18.88121931399191    1.50270273438996   10.54458651445259
H        18.74749077358095    0.28024921366734    9.26763973579983
H        18.92901640474665   -0.25411002773054   12.76380243228511
H        17.66307134239671    0.96299864811091   12.93426396238628
H        17.30012604753946   -0.75727902495547   13.16240316774829
H        17.56412900993361    2.92316058209455   11.65994589913804

