41
CSD_code = GIGPOC | q = 0 | S = 0 | Stoichiometry = C15H17MoNO7 | MND = 6
Mo        4.55496452849443    7.54879576045403    4.16898846873405
C         7.61748780361183    7.48326026468163    6.62523526892946
H         6.90035523753965    6.65694002690185    6.67612042041305
H         8.55562357495086    7.10317788475007    6.19123379124308
C         7.48766759348365    7.26685488935639    2.24104374665670
C         8.55154567562373    7.30764331802406    1.27134783623925
C         7.64499748814431    7.84442832859890    3.53200166994830
H         8.63760668111887    8.21686342852910    3.77429695365960
C         8.36668791631260    6.65805875900565    0.02265169241045
C         6.13610674570441    5.96867190354168    0.66073347114183
H         5.19325488629665    5.47870244349731    0.46240083747497
C         7.97622075537903    9.79672201359117    5.57151139829675
H         7.67774510289688   10.37637819996781    4.69361157236614
H         7.84254294951032   10.43083987455862    6.45782776533801
C         7.03152682427857    8.57591922353001    5.69334732451718
C         6.27952620541395    6.61027979417046    1.92224351935154
C        10.75386453028065    7.98758604036323    0.52116588740973
H        11.67915533061657    8.51144925489557    0.71007031072874
C         9.77169659772236    7.97832549462581    1.47957617357800
H         9.95425506766011    8.51180135774514    2.39855622795535
C         7.14309921715303    5.99624363106048   -0.24977856680164
H         7.02484698150551    5.51368677715702   -1.20949725674591
C         9.39122130758929    6.68159268134803   -0.94140867415910
H         9.22516271711598    6.17728823452740   -1.88218932727675
C        10.57096418305555    7.33210119675373   -0.69916401927790
H        11.35394824889392    7.34797197068808   -1.44187408488434
C         5.66566199349905    9.03416143702593    6.26351369152262
H         5.72573750107811    9.10537205275846    7.36211862234838
H         5.40191511336032   10.01935240549738    5.83391250945662
N         6.71272215583580    7.95770727415181    4.41930134052112
O         4.71523167418770    8.10685978141893    5.89949188291075
O         7.80215448044931    7.91494774360013    7.94584482977980
H         8.40573540170156    8.66565763862497    7.97750320727256
O         5.29513814188640    6.53341969672417    2.76943985190180
O         9.33884196950356    9.49133779350631    5.37968607121587
H         9.72523150545069    9.14168034758294    6.18994756396505
O         5.43700798193847    5.22807503410356    5.33201821448988
H         4.53539668999003    5.40738827334209    5.64182813028598
O         3.26263593931452    6.56208481205856    4.43292129835825
O         4.28761862719565    8.97369458364217    3.37743267477393
H         5.33159667425648    4.59157837363899    4.61588770394976

