48
CSD_code = GIGRUM | q = 0 | S = 0 | Stoichiometry = C19H18MoN4O6 | MND = 6
C        -0.17026369828847   -0.13394614951677    5.91014112071008
C         0.25510675361226   -1.32063314161896    6.57052676924520
C         0.07070994231161   -1.45670778059506    7.93295598391409
H         0.39602472881721   -2.34797320758940    8.44570710205385
C        -0.54074727141008   -0.43894084257764    8.66677658156088
H        -0.67542027965564   -0.56762550154939    9.72959908839273
C        -0.96035942066991    0.71157715918910    8.05056273341999
H        -1.42599416728266    1.50059310255359    8.62139810440351
C        -0.77917282365029    0.89165649644687    6.66657904748160
C        -1.18613725697210    2.11602079605686    6.04674352046295
H        -1.63906323548626    2.88425862163814    6.67525629808444
C        -0.96826309297489    3.82796748786714    3.15115172734917
C        -1.20810789913891    5.14217127494336    2.53335267562733
C        -2.08213335253348    6.06576322351218    3.09641546571961
H        -2.59916024039135    5.81114262719836    4.00626257723183
C        -2.26486220234227    7.28841393296338    2.47324314552744
H        -2.94296691997946    8.01369179671137    2.89735995402942
C        -1.58214375218702    7.59602947825953    1.31292046315840
H        -1.71128067773741    8.54819234755214    0.82280736465673
C        -0.69369743967088    6.67606966008853    0.74792907746040
C        -0.51548942689619    5.44356891299383    1.36054863933543
H         0.16156616693144    4.69602754494916    0.97351805418784
C         1.38841368478872   -3.39324139707377    6.32205420635231
H         2.16414927516800   -3.13983070525356    7.05160374283188
H         1.83634775658858   -3.94308926191121    5.49618960712097
H         0.62693750001261   -4.01775076814889    6.80264737612701
C         0.88127329037718    6.20636676721289   -0.96982891544819
H         1.69464608546505    5.97366737665600   -0.27633023729986
H         1.28016495526519    6.74170029316229   -1.83011942285962
H         0.41500263499190    5.27499364864248   -1.30605968474477
C        -2.01807442258225    0.71924351354872    1.40445984167055
H        -1.55272890265570    1.43419642499691    0.75192683782641
C        -3.21569557964794   -0.96735138683061    2.10551962757518
H        -3.87549433320879   -1.80859246796074    2.05715772505813
C        -2.58216264222335   -0.37359683407420    3.15627925078566
H        -2.61586523132387   -0.62818977441042    4.19877261017786
N        -1.01048700683422    2.37429264621725    4.79509139598059
N        -1.40024558275880    3.60155934976658    4.35930768791107
N        -1.84057940724501    0.67669678614211    2.70278274237266
N        -2.84765710743777   -0.25742139922048    0.99879896965320
O         0.00159646641451   -0.03204430534387    4.61341783952609
O         0.82443643729356   -2.24062028143445    5.74712408239853
O        -0.32006682359731    2.93549437947917    2.47530665676004
O        -0.06267959434666    7.07591675083135   -0.38673362432928
O         0.77359196812675    0.54418216865708    2.06672591687539
O         1.58450281151385    2.11194072650726    4.18965927579470
Mo        0.33111976586605    1.34998850830183    3.43501274680994
H        -3.11949043242435   -0.45512859793329    0.04897825105279

