77
CSD_code = GIGSUL | q = 1 | S = 0 | Stoichiometry = C35H36ClP2PtS2(1+) | MND = 4
C         5.26438633202476    0.41391338457765    2.65621422095876
C         4.75035854271726   -0.67958937685360    3.34900246654372
H         3.68553705849408   -0.73190283120027    3.54201493362265
C         5.59456546750683   -1.67218133281196    3.80519022897462
H         5.19352420376691   -2.51801177852063    4.34200037601537
C         6.95873216494300   -1.57375309968190    3.57784900440257
H         7.62086085722064   -2.34692360747125    3.93516013318509
C         7.47426503067731   -0.48024618639806    2.90250777102074
H         8.53753504253956   -0.40126663644288    2.73539307017315
C         6.63337894235543    0.51952524658850    2.44551314008331
H         7.04350135648900    1.38193159238944    1.94197220155218
C         4.93062783589749    3.12285262416636    1.49938396516862
C         4.62171926775562    4.34907437374420    2.08434636463643
H         3.89833045128375    4.38086973787998    2.89805926831666
C         5.21399724775126    5.51001924467578    1.62359531557367
H         4.97200524429789    6.45804287092593    2.07849424379181
C         6.11500326211859    5.45054164819400    0.57190402312972
H         6.58068617307786    6.35398419831008    0.21029445329789
C         6.41158090100466    4.23513094899855   -0.02616595184963
H         7.10322714181377    4.19556129962199   -0.85380556453438
C         5.82005762770304    3.07028122994446    0.42904573720682
H         6.04394237162000    2.12767639931758   -0.05099831283673
C         3.30553202323097    0.93832539433395    0.62356625566467
H         4.08103494499832    0.70883413041127   -0.11322730623537
H         2.82703567516754   -0.00500944460803    0.90602114435973
C         2.30117872779289    1.92393476781390    0.04939155393473
H         1.68447536251226    1.47472048832445   -0.72917383426010
H         2.81419069446686    2.79350193012193   -0.36568338956070
C        -0.00227929300124    1.23126477735407    1.49920452383802
H        -0.58636619124875    1.13966934986430    0.58734806513420
H        -0.65569157225718    1.48450784828908    2.33069189019892
H         0.52803494672057    0.30587473993807    1.70749452868526
C         4.60246840654078    1.48519536598132    5.88332722819318
C         4.94636364029279    0.55106746583113    6.85276779062680
H         4.17399404134266    0.03616843478497    7.40501776057382
C         6.27926207977537    0.27852878007320    7.10548475876959
H         6.54261786243470   -0.44883890967923    7.85797632915501
C         7.27264146192105    0.94100089951136    6.40383515606479
H         8.31085015410646    0.73320567414432    6.61155593682528
C         6.93442011340817    1.86867604837544    5.43194616041401
H         7.70653166016289    2.38642614557682    4.88346844021321
C         5.60376032308728    2.13253302467098    5.16682570672338
H         5.33165468039315    2.84388071847784    4.39406866028298
C         1.84330649550887    0.64381626953202    6.25987824544338
C         1.59495048235212    0.49338795255624    7.62023464406708
H         2.02037726510237    1.18387520473914    8.33415698913097
C         0.78540714419049   -0.54150201356086    8.05664700688019
H         0.58652715809669   -0.65584103515128    9.11124128698336
C         0.22374797251036   -1.42250061738697    7.14681297391918
H        -0.41169547660025   -2.22224022555174    7.49431427536431
C         0.46452806625584   -1.27094281305123    5.78972512202887
H         0.01518876726856   -1.95128972350669    5.08213517012587
C         1.27080804579236   -0.23963006298287    5.34972847561493
H         1.45117641390552   -0.08376027585888    4.28776916433760
C         2.70480658945136    3.39465590950899    6.74282286765038
H         1.65305786758227    3.52169399934982    7.00884523863050
H         3.28036726188910    3.15650920398415    7.64490168557802
C         3.24349931455843    4.65925612592853    6.09268977618788
H         2.54129789725286    5.03886145699965    5.34874354379947
H         4.21292972982874    4.49604753497530    5.61990115262591
C         4.60045700409295    5.36431727731394    8.45943422424250
C         4.56469224799794    5.89056420653581    9.74658815098142
H         3.83049377865930    6.64406072796449    9.98686844776948
C         5.46412683136913    5.45107863935194   10.69819704614133
H         5.43255666674090    5.86627176954786   11.69367747831488
C         6.39634909368878    4.47569763597034   10.37954014872167
H         7.09217925666355    4.12531283417407   11.12585631856298
C         6.43448828164016    3.95890521692235    9.09677982824038
H         7.16163282941790    3.20503584690286    8.83177101115433
C         5.54833885745440    4.40533918318017    8.13127703678712
H         5.61996784649735    4.00231051751095    7.13275064700121
P         4.06389971316304    1.67266336773276    2.14840064513575
P         2.86931433369511    1.97112570843403    5.59277990334812
S         1.15313295735953    2.61809507033602    1.30181348915465
S         3.41222378771332    6.01053837259784    7.30842708973210
Cl        0.40308537176939    3.01526521039993    4.52085112701116
Pt        2.28164788261723    2.31192394519207    3.41016134141183

