22
CSD_code = GIGTOH | q = -1 | S = 0 | Stoichiometry = C5H8Cl3N2O3Os(1-) | MND = 6
Os        7.14276178396543   10.74369683259119   11.23095711471643
Cl        5.43686473039106    9.49738421500454   12.11421396039781
Cl        5.89364130567279   12.72176977072856   11.42017385610607
Cl        8.45921267345148    8.85643383559130   10.70781949886467
O         6.39678668336863   10.60459266349575    9.38697678182756
O         6.47791834082036   11.07873079955382    7.21646371689550
O         8.59353458990260   11.27571092073193   13.63019223347255
N         8.68771085453142   11.82728825639281   10.00510188702469
H         9.47523813954836   11.18083607382457   10.06923319743471
N         7.93375656228934   10.99935770966225   12.69816902997632
C         9.07472478302244   13.18455874740762   10.44379469179790
H         9.98627911196053   13.14905058698757   11.04231385201959
H         8.26218485367101   13.59766395202786   11.04992847920959
C         9.20451166180682   14.00585625674683    9.16195206457348
H        10.17719412563534   13.84617994820119    8.68991807251950
H         9.06949748360658   15.07006465103379    9.34241378572953
C         8.09238198866722   13.39863470602638    8.31363185100696
H         7.12164520835603   13.74177528991295    8.67554481467688
H         8.17240509944676   13.61493525614272    7.25096725209894
C         8.24660978429018   11.90423154150564    8.59959278776537
H         8.99691234969527   11.45878850138859    7.93443337531756
C         6.90722788590086   11.12385948504403    8.35140769657070

