25
CSD_code = GIGZII | q = 0 | S = 0 | Stoichiometry = C13H5AuF5N | MND = 2
Au        4.93640942616197    2.59621136491658    5.05334414420285
F         1.97231606497455    3.72302503363811    5.07955733601650
F         4.83738905085552    1.47350620073029    2.09729283223810
F         0.01901875099144    3.72858662768463    3.21403845687217
F         0.46290918623348    2.59945988368194    0.76116982545391
F         2.89583500119364    1.46901294297723    0.21964368307347
N         7.16731893302123    2.56721082099800    7.13574687489619
C         3.48165353208059    2.59834615258354    3.66207230889606
C         2.22724979124347    3.15661731662275    3.87978824257150
C         9.42058884571537    2.05568262909657    7.68606829716719
H         9.58216651260444    1.69791233164386    6.68074739191535
C         6.31129210490592    2.58607200817996    6.35072457303664
C        10.43373690151042    2.03842794084669    8.62524798087443
H        11.40685635414548    1.66061613867296    8.35226284345682
C         7.92790895336293    3.01527808146640    9.34174156233984
H         6.94964465771692    3.39030891425089    9.60076823790326
C         1.20783312114173    3.17105228699552    2.93588542145083
C        10.20349284716056    2.50321639842450    9.91123545213599
H        10.99995413561586    2.48642916832186   10.63896559256582
C         8.16826439192594    2.54625658311733    8.05153951539282
C         3.64872745303180    2.04031012957818    2.39979093611819
C         1.42906220740911    2.59895009247019    1.68962846218026
C         8.95435233753050    2.98945325603405   10.26620815391249
H         8.77850277398832    3.35029066918827   11.26775813891223
C         2.66521666547876    2.02636702787954    1.41867373641708

