104
CSD_code = GIHBOP | q = 0 | S = 0 | Stoichiometry = C29H62N2O6S2Si2Zn | MND = 5
Zn       -0.51679918012774   21.66604841283417    3.15274763451755
S        -2.51638227085813   21.18197366182516    2.12478670010639
S         0.42522861345605   22.13050946233440    5.20341431611085
Si       -2.01323550772244   19.14543447589928    2.23955046295385
Si       -0.15409183275460   24.13514473317529    4.92737922692859
O        -0.47665232205553   19.25394020091233    2.81266469486512
O        -1.91150999202120   18.38169693477328    0.81866156282867
O        -3.01262782169671   18.25697435383627    3.16461079481923
O        -0.56033528203426   24.09710260809290    3.33726744897058
O        -1.33174717554440   24.64437083978610    5.92376474863100
O         1.04645844745668   25.21174850323880    5.06400917458879
N         0.94450888589459   21.82434698311963    1.62073681260901
N         2.71800197014760   22.05429366552423    0.37402503743093
H         3.67990095697267   22.18869038503089    0.10716331505219
C         0.50537090855374   18.21988130036164    2.87294137797813
C         1.49869017967414   18.61497889139327    3.96599365089026
H         1.96354488189804   19.56408684209960    3.71721347443479
H         2.26690623120928   17.85321470348775    4.07134657991221
H         0.98146601500244   18.73990773627510    4.91326072708860
C         1.20431788209596   18.14059655654841    1.51369063786234
H         0.46619596702966   17.93006403649206    0.74533342183529
H         1.96006911873543   17.35929397262922    1.51973244342544
H         1.67611007958505   19.09323984404097    1.28620208319282
C        -0.13045100090566   16.87295295445709    3.20910373590556
H        -0.66389272398313   16.93927716511207    4.15298520097019
H         0.63908064803561   16.10904471552803    3.29113505439272
H        -0.83487324673977   16.58907866039430    2.43365679078868
C        -2.94003112477376   17.85093512229149   -0.00046003425827
C        -4.18072463124794   18.73668525501353    0.04332018187708
H        -4.60609970274701   18.71836951024445    1.04160695201046
H        -4.92082005563843   18.38894071101258   -0.67218406047966
H        -3.90900934242575   19.76348609076077   -0.18500479434934
C        -3.27590920505851   16.44460517214073    0.49848079349468
H        -2.40521301332981   15.79812027193873    0.41343777479271
H        -4.09032741991412   16.02041774126192   -0.08230047455299
H        -3.56643719819933   16.50354584221295    1.54324133221641
C        -2.37150763591380   17.80050179307672   -1.42138468685891
H        -2.13789081722847   18.80699658120693   -1.75845536960965
H        -3.09308085039648   17.35480217852799   -2.10023166844732
H        -1.45861113430590   17.20991184393599   -1.43572093411698
C        -3.64779110391194   18.50241593923326    4.41407163209567
C        -2.67509948104030   19.12772310688356    5.41132004514775
H        -1.81617590000415   18.47898275682311    5.56186252071191
H        -3.16741197139234   19.28887178685097    6.36634812969254
H        -2.31269727999411   20.08250599462808    5.03625381229318
C        -4.84616269292962   19.42710570721518    4.19255818907773
H        -4.50991879174705   20.36414449437404    3.75630245203871
H        -5.34596406458777   19.62634804625826    5.13627959199208
H        -5.55332262196158   18.96403159035892    3.50825696031341
C        -4.11661476768593   17.13364000964247    4.91967148937793
H        -4.79530936381527   16.68441665255374    4.19875028734284
H        -4.63066354096764   17.24094569493057    5.87061235813948
H        -3.26444681120109   16.47101159379995    5.04906494668448
C        -0.82582389015666   25.19865041119374    2.46658595507715
C         0.50780304507693   25.72507747066148    1.93132711313369
H         1.11738786625446   26.07389639841490    2.76011350717657
H         0.33899951982840   26.54347321694201    1.23613301150791
H         1.03720012034063   24.92579863192659    1.41785116892120
C        -1.68444696254294   24.66639130336351    1.31927360917680
H        -1.12607572340202   23.93032707400793    0.74827321954738
H        -1.97982252937785   25.48018275108903    0.66187622989951
H        -2.57110560475736   24.17654559043456    1.71226466737009
C        -1.56758642829234   26.31295364720611    3.20056880293491
H        -2.50718423406975   25.93544412111511    3.59315124562321
H        -1.77418399896009   27.13401463092391    2.51822565477137
H        -0.96776084189465   26.67898052900998    4.02824071522606
C        -2.52321380794240   24.05540915043499    6.43270027459657
C        -3.33129684333655   23.40013401049651    5.31577906072563
H        -3.60700296846348   24.13312156947083    4.56233426574784
H        -4.23577651425364   22.95303166834757    5.71858127637477
H        -2.74317888523722   22.62559724215519    4.82764399086980
C        -2.15953091064922   23.02161600495101    7.49984395991219
H        -1.53143132506929   22.24829295545806    7.06553235581442
H        -3.06021093721380   22.56908158626197    7.90490370694681
H        -1.60790175204315   23.49625833270794    8.30809404521282
C        -3.32038099306668   25.20660873153002    7.05637771715085
H        -2.74032622752076   25.67510208517001    7.84786908137597
H        -4.25189824631352   24.83465683079691    7.47327567391937
H        -3.54320218440467   25.95701909469772    6.30190313467510
C         1.59740249915387   25.79930465241609    6.23220840242378
C         0.71877186700541   26.98246246899989    6.64142403238278
H         0.71593116683801   27.73660183553176    5.85746466659124
H         1.08885475950301   27.42828243764212    7.56056498307844
H        -0.29722751662027   26.63058152841203    6.79189062227672
C         3.00145865947476   26.28007747976069    5.85460419022292
H         3.63117772296048   25.42811907889389    5.61477929682442
H         3.44394779142369   26.82858852777542    6.68135417222861
H         2.95063963316624   26.93063117437368    4.98487962448519
C         1.67495599155308   24.77962556978022    7.36337091269362
H         0.67287592733638   24.50542805825033    7.67633043880857
H         2.21862073682499   25.19151354115285    8.20916394021004
H         2.17330402093020   23.88001734964481    7.01287689773290
C         0.56743147586749   21.72951548612870    0.31419666769527
H        -0.45575857862949   21.55272732116193    0.05100848856618
C         1.66228961174483   21.87261653517847   -0.47847193658440
H         1.77920562288788   21.85949218457025   -1.54180662838605
C         2.24388034452553   22.01713394161778    1.64012897510815
C         3.11421783485866   22.17313878122426    2.83267238480446
H         2.55970291656040   21.84801895969786    3.71447625271731
H         3.99729631114737   21.53876258511208    2.71102889929492
C         3.54553093948628   23.62770462839789    3.03680070357632
H         3.98527531234969   24.04610485500191    2.13281834863581
H         4.28297727248706   23.67777547195823    3.83327893017003
H         2.68807702768451   24.22775642223688    3.32495875493321

