71
CSD_code = GIHGOV | q = 0 | S = 0 | Stoichiometry = C32H34N2NiP2 | MND = 4
Ni        0.56284771103914    7.23635963414111    2.73822027008821
P         2.63139990379488    7.74704364416207    2.45230177613763
P        -0.08676540980439    5.18546998568531    2.82210043676932
N         0.38573270835991    9.02521043590829    3.63076956883804
N        -1.33538019499245    7.65740434618577    2.25087290252802
C        -0.92633460231092   11.11086804511005    3.38025653669824
H        -0.77427340330029   11.47907086074918    4.39626711181215
H        -1.91538471079513   11.40266233501696    3.04124933850050
H        -0.19126333797861   11.60022727603522    2.73928458298822
C        -0.74227526009232    9.62230182080177    3.32042237007330
C        -1.77481471652562    8.73782796285941    2.85541659940972
C        -3.23089018376482    9.00292134168617    3.10507582456128
H        -3.78462969167014    9.03998037525323    2.16550956051717
H        -3.37837349790522    9.93518952619053    3.64115310867254
H        -3.65488558897021    8.19684988866127    3.70622243245179
C         1.56988460181213    9.80209845304626    3.91864369664672
H         1.46106698099016   10.30145761865316    4.89202022957183
H         1.73432038686787   10.58363547958617    3.16006078591242
C         2.78406836924919    8.86750091146326    3.93423314121706
H         2.73883333657263    8.22060692802309    4.81537118905685
H         3.71670212260680    9.43766127425196    3.93552754747620
C         4.01986564393020    6.58022534599117    2.63718582290577
C         5.07297542556049    6.70879659344579    3.53434490488947
H         5.13691090894192    7.57038039409467    4.18276197554879
C         6.04601472178265    5.72639847702436    3.60572147875611
H         6.86257818607716    5.83092531172994    4.30653316573859
C         5.97698040534795    4.61094905550942    2.78805722436397
H         6.73826891700524    3.84694630461800    2.85223835933828
C         4.92683362237932    4.47295691693287    1.89440480210231
H         4.86223996239605    3.59946166780459    1.26186293880004
C         3.95387711105928    5.45036865881303    1.82567083329371
H         3.11474017686332    5.34584106727011    1.14896849710270
C         3.25846696864568    8.89031383680466    1.17223267975563
C         2.30122369891182    9.55334640990841    0.41226927295190
H         1.25511204720926    9.32037828250028    0.58157536293293
C         2.68338392746217   10.47951980992140   -0.54010374035580
H         1.93711019048828   10.99782206532517   -1.12554256386755
C         4.02916999714988   10.73613374352072   -0.74801619776438
H         4.33308142054010   11.45551454290464   -1.49481101307695
C         4.98717119358501   10.06577168889106   -0.00407426864499
H         6.03617750898911   10.26301256496831   -0.17431995895344
C         4.60661946346916    9.14610192030775    0.95687250696419
H         5.35380735220442    8.62087609041816    1.53549636565859
C        -2.24725863764137    6.58700710489628    1.91578835581388
H        -2.88646933292501    6.89100120905863    1.07472098934673
H        -2.90615043899210    6.33743399844249    2.76230651092404
C        -1.43005032103927    5.34638457554976    1.54195496360711
H        -0.93242063564475    5.52037410312272    0.58350706066104
H        -2.05842889857730    4.45368767646382    1.48243720440690
C        -1.10080905129602    4.58097275038865    4.21524286567915
C        -1.58326583161729    3.28089342763648    4.30240150717269
H        -1.31961464374042    2.55739343927590    3.54301706978951
C        -2.39180294336858    2.91707115636123    5.36398266647671
H        -2.76488802546824    1.90510375319208    5.43450499840958
C        -2.72741788646255    3.84608849625826    6.33646358369135
H        -3.36194331732169    3.55620735563100    7.16167059819169
C        -2.24682384766722    5.14300737529442    6.25405019033496
H        -2.50590328310556    5.86544185695288    7.01513351328740
C        -1.43049416327736    5.50615506196336    5.19881554746796
H        -1.02999607304959    6.51182132195539    5.11611629037139
C         0.80073063621654    3.66659563395654    2.35361722804795
C         0.68350990286618    3.01813622944172    1.13073109347331
H        -0.02459875116793    3.36751810477120    0.39398113855640
C         1.47687221054730    1.91857467938094    0.84875405182244
H         1.37788498877769    1.41670882486356   -0.10369335775602
C         2.39617336633840    1.46190928906809    1.77725640086330
H         3.01375732525569    0.60476210657230    1.55040591692684
C         2.52804287067838    2.11142152780931    2.99525522914726
H         3.25174062454377    1.76428726868039    3.71857007239459
C         1.74056542378304    3.20931453749561    3.27596949487113
H         1.84576436018652    3.73623824335386    4.21593135765271

