61
CSD_code = GIHLIU | q = 0 | S = 0 | Stoichiometry = C24H22CdN6O8 | MND = 8
Cd        4.52384194354188   14.28867944461689    5.50470235807756
N         5.07207777492157   15.94711382253790    6.97563109413463
N         4.32802097398371   16.83577880337889    4.45544091185370
N         3.69419674494471   15.34084374389868    1.31129371426269
N         3.67736351789735   16.05093750005952   -1.21997196189058
O         6.90068265285708   15.24120778227451    4.52256781167205
O         4.31114726160772   14.39834355786939    3.26978387252499
N         2.35462630772890   13.73691893899993    4.82100820254619
O         2.50844834569317   14.73107814533498    5.56019618458740
O         3.08811237038825   12.77102026402710    4.97442302023942
O         1.48484845685186   13.75598115509772    3.98989385416980
N         5.69215873421926   12.24817184487309    6.29301684047916
O         4.98236652211631   12.90686126861251    7.06688312163003
O         6.01927906979593   12.77962518992334    5.21260760309703
O         6.10944769071055   11.16672425816820    6.59345265853522
C         5.80864436263647   15.65818010904636    8.04167468774706
H         6.14914939246609   14.63536506840969    8.12716932973293
C         6.12011809214161   16.58722105098072    9.02123394076479
H         6.71992307629140   16.30143436291303    9.87019459395584
C         5.63968370895453   17.87914107207178    8.88442143901683
H         5.85555866472839   18.63398120242771    9.62574551785120
C         4.87460138485838   18.18211626675457    7.77190221048373
H         4.48097091678811   19.17690686463748    7.62797739873729
C         4.60905930789243   17.18828397837236    6.83565376776725
C         3.75731140748855   17.47241526266399    5.62802900876100
H         2.77600287345231   17.02934439518375    5.81837237591967
H         3.63962688216723   18.56138003183242    5.49608102277123
C         5.50384329489582   17.57337035558337    3.98827791569131
H         6.17642653592123   17.69566322476460    4.84121116691513
H         5.21080071681824   18.57312781387531    3.62217696447439
C         6.21553973902520   16.82242310276501    2.89881598172342
C         6.19793571379659   17.24361728036494    1.57838251137443
H         5.70532844525550   18.17213890476482    1.32600448484178
C         6.79199763188324   16.49099573214070    0.57976242987468
H         6.76184930590066   16.83176983961670   -0.44354796292290
C         7.40373916559381   15.29212803114778    0.90034713843538
H         7.84884952989464   14.68661576018085    0.12559477440436
C         7.44497172107518   14.86190060157845    2.21418676813881
H         7.91044090239997   13.92025074931876    2.46804144511299
C         6.86327998533551   15.62404429117414    3.21943126475115
C         3.39399723462738   16.60202631747286    3.36765321351338
H         3.32109711819176   17.45640086799582    2.67722699765514
H         2.40164759619540   16.39233431859003    3.77794245622759
C         3.84289073422827   15.34149116991115    2.64195410868989
C         4.11927770775601   14.37256730608052    0.40132442099308
C         4.54379626892167   13.10650092982637    0.72069614372226
H         4.55332595008433   12.77936845278165    1.74722426818419
C         4.96713373787859   12.23560746216199   -0.29427127067312
H         5.29562657900165   11.24535008487445   -0.01835608474207
C         4.96768768642429   12.61614716757814   -1.60826571739933
H         5.29612898735012   11.93972407044446   -2.38367639404320
C         4.53275494280271   13.90662756353022   -1.97102963845930
C         4.49793862224296   14.38239311815957   -3.29865188563727
H         4.81470549830104   13.73242227198082   -4.10216268207069
C         4.06286164390834   15.65676721035840   -3.54562168983389
H         4.02219817108074   16.05343581390037   -4.54803803123900
C         3.66148964101151   16.45449420942866   -2.46104136528810
H         3.31270808329110   17.46652381892135   -2.62402821808494
C         4.10192172532704   14.79784368464730   -0.95598890087500
H         3.35887011893580   16.16837663370305    0.82259016382771
H         7.20417082752310   14.31969645541206    4.56695064327703

