53
CSD_code = GIHPOD | q = 1 | S = 0 | Stoichiometry = C15H27N6NiO4(1+) | MND = 6
Ni        0.88547985409696   -1.62324759118328    2.96230692662070
C         1.90273347856932   -0.21991646631047    0.55719654451379
N         2.28903076012020   -3.63539126609029    3.18671915579304
N         2.13432509719223   -0.54324238869338    3.86105702690105
O        -1.17458791313258   -0.56117424413392    2.31233710612845
O        -0.53987426124034   -2.57664131898828    2.12726394126309
C         0.50123465147944    1.23096786985245    4.51571616905512
H        -0.16807599232062    0.76016277360887    3.79828035191337
H         0.64262270213946    2.26994754317390    4.22233487003662
H         0.04294776936202    1.23698281317644    5.50413224869948
C         1.81873795578689    0.54554066045755    4.56766164596834
C         2.48767648415547   -1.90168738171986   -0.77268267569518
N        -1.43054572530349   -1.68574474333516    1.88585029727217
N         2.00657093592739   -2.37779728192640    0.39312038116610
N         1.65966422372109   -1.35949317108162    1.20988262493400
C         1.44769308670215   -4.62282238730655    3.87019345476348
H         0.56991250340075   -4.83082671510152    3.26239380209711
H         1.12806642431459   -4.22704635446015    4.83162142667709
H         1.98981551935712   -5.56100313956344    4.04304850643297
N         3.41208343501602   -0.85271851352022    4.15866604128275
C         3.45336341050094   -3.30872101286774    4.01502316279395
H         4.20624805271221   -4.10816918965521    3.97210691234512
H         3.12665613360089   -3.20962265326078    5.05250733878891
O        -2.42209396095109   -1.98984768489665    1.30191043789866
C         2.92406288805729    0.93357122166172    5.32857252493121
H         2.97939996017170    1.77122966778934    5.99157041144493
C         1.80799021457425   -3.76142487213296    0.74878356666648
H         2.01130593731315   -4.36671420831391   -0.13367331814475
H         0.76597195655008   -3.90289581653338    1.04548257688790
O        -0.09445000257489   -1.95329871417785    4.78691780397513
H        -0.59143407085021   -1.17330934264310    5.06478096225309
H        -0.73116400591954   -2.67070935988201    4.67502982279185
C         1.58835156159987    1.11745108083672    1.11478121784759
H         2.33877177091842    1.42583333137985    1.84115353904530
H         0.61624349824103    1.08880942292376    1.60407478893328
H         1.56283600201593    1.85013151040377    0.31365309928591
C         2.73022375617437   -4.18558025079234    1.89393587785733
H         2.75731536041233   -5.28137471160162    1.93613163905873
H         3.74137821060280   -3.83928936313429    1.66787938974645
C         4.08950880138097   -1.98147247490170    3.57896714663332
H         5.12996863750186   -1.94444593007240    3.89999948238050
H         4.05489661224306   -1.88353904545955    2.48980690027459
C         5.30439948124435   -0.04578803535666    5.58192149157268
H         6.03795414154421    0.06550444014425    4.78419647358643
H         5.48634260263143   -0.99143527588876    6.09052596500835
H         5.45246646124340    0.76010635922647    6.29428564914846
C         2.43649411584241   -0.52252672742688   -0.69579823307589
H         2.72968582788354    0.17612418910990   -1.45092796502345
C         2.95239165621734   -2.76108753560011   -1.88759768492168
H         2.12977940324633   -3.34901584076058   -2.29337191925845
H         3.73773123168938   -3.44279812117765   -1.56431670687057
H         3.34506808052503   -2.13391835929746   -2.68235598208201
C         3.92172528431379    0.02187460550297    5.05184378239727

