73
CSD_code = GIHPIW | q = 0 | S = 0 | Stoichiometry = C36H30N2P2PtS2 | MND = 4
Pt        2.11086124011496   -7.66971485278325    2.98130186030627
S         1.70473744885291   -4.65722016379988    3.20774188445929
S         0.22533785778060   -6.85898451557803    4.04605494679489
P         4.15878227740055   -7.99743258168294    1.96759167036257
P         1.47139176494265   -9.83033711594741    3.29682967150253
N         2.61675483849101   -5.78292159535036    2.67916229646545
N         0.42499059324086   -5.22125060226535    3.92899997011505
C         5.04185430008258   -9.59358963193215    2.03071274221600
C         4.68749825080990  -10.60318532019089    1.13853103127357
C         5.31506373258856  -11.83241915839039    1.18966939869652
C         6.29643767267335  -12.07287421781251    2.13794891106587
C         6.63921178843747  -11.08037368064328    3.04023110679183
C         6.01408101941649   -9.84776931966572    2.99205024342016
C         5.35743431744587   -6.86598168384111    2.73130890216615
C         6.35975889312417   -6.21254535443661    2.02812777466545
C         7.22295794556416   -5.36035428539904    2.69592037673678
C         7.09415451006352   -5.16112582766783    4.05991609077958
C         6.09321835017725   -5.81194730962499    4.76500200159898
C         5.22735229211766   -6.65873217445126    4.10197855469115
C         4.22206032471977   -7.59571455005582    0.19619840050112
C         5.26217560881729   -8.01513239837149   -0.62906720463217
C         5.26071618506579   -7.66780427672948   -1.96785848476057
C         4.22749852280856   -6.90622096768397   -2.49119735443951
C         3.19121804768182   -6.48704417027901   -1.67289408909770
C         3.18839353050184   -6.83156858425262   -0.33364312952391
C         1.07535617389035  -10.76680513247694    1.78738714945663
C         0.49699502692038  -12.03192573985838    1.82945360015675
C         0.20866507131882  -12.69469877434616    0.65062782431106
C         0.48159597784833  -12.09784033795914   -0.57089854064691
C         1.03239289880504  -10.82755641150877   -0.61705846509800
C         1.32426731039515  -10.16356730374198    0.56065084178089
C        -0.02553589158106  -10.14398706685687    4.28106695596704
C        -1.23769992048450   -9.77188058727112    3.70303546279842
C        -2.41641348176240   -9.92036138917535    4.40602925051759
C        -2.39432174257892  -10.43768805509585    5.69184261071852
C        -1.19159445329031  -10.80607751349872    6.26992757702702
C        -0.00596930827230  -10.65842562031533    5.57097863898669
C         2.74089197687147  -10.81041850548123    4.15751582452975
C         3.15613511207356  -12.08654081820820    3.80405437862818
C         4.14533982074149  -12.71530781806150    4.54052819900098
C         4.72697541667657  -12.07832722325705    5.62302953083567
C         4.32806532705682  -10.79672560676255    5.97028329121902
C         3.34291626096971  -10.16602935493287    5.23731978614529
H         3.92439616152044  -10.41633180401382    0.39579649979000
H         5.03904961985982  -12.60479055864626    0.48636668557656
H         6.79161846220668  -13.03187783977508    2.17385326760203
H         7.40033185577536  -11.26533012419198    3.78398244432284
H         6.28777535810457   -9.07455238483437    3.69575075977629
H         6.45672712531548   -6.35385641776354    0.96127580793426
H         7.99677697371414   -4.84430246729905    2.14615254032561
H         7.76749792830777   -4.49064643618680    4.57341310489213
H         5.98522381258003   -5.64856223551678    5.82739493604584
H         4.41797669475179   -7.15399009236415    4.63045788470220
H         6.06518041476386   -8.61612545038777   -0.22459068656465
H         6.06978509862449   -7.99206648744636   -2.60642382322778
H         4.23190941660743   -6.64071806427953   -3.53819782177618
H         2.38594798206183   -5.89341266592713   -2.07977274774610
H         2.39133085041148   -6.50543211864671    0.32556178463367
H         0.26440210798818  -12.48443447861151    2.78419294222281
H        -0.23626099915673  -13.67873652682979    0.68248115349785
H         0.25202096618020  -12.62019963954722   -1.48789114947058
H         1.22936963509968  -10.35406717038399   -1.56811653274315
H         1.73744974782816   -9.15813917696324    0.54730328798166
H        -1.24191094535225   -9.35745661278671    2.70322142445589
H        -3.35298977373519   -9.62556322192402    3.95645167284028
H        -3.31519813197795  -10.54826348985740    6.24512671076562
H        -1.17380006468845  -11.20629400654086    7.27336226326848
H         0.93161028835589  -10.94284814740791    6.02810617421576
H         2.71674674151973  -12.58568712225555    2.95304643025638
H         4.46383974225885  -13.71008186731641    4.26501432378944
H         5.49638564323863  -12.57740567825519    6.19334807552754
H         4.78722666087013  -10.29450717242755    6.80926205059724
H         3.01607773844865   -9.16171294397583    5.49037904801390

