85
CSD_code = GIHTEX | q = 0 | S = 0 | Stoichiometry = C30H46N4O4Zn | MND = 4
Zn        6.66648649898386    9.99973355973965    2.19263582692903
O         3.09931274133932    6.27086122427795    2.34296046997810
N         6.00317231344949    8.87170309827223    0.73918660371738
C         6.20221019564099    9.42613369910831   -0.44262338003515
C         5.50314085663625    8.99464030171463   -1.59010443942384
H         4.66712860747870    8.34291401200378   -1.37379534118225
C         5.66538177216886    9.27723477127993   -2.92894070154475
H         4.93430881087653    8.82007783185601   -3.58676613037242
C         6.66654004833503    9.99967165697980   -3.55755861004138
H         6.66655719121715    9.99965380282962   -4.63949401933633
C         5.20601618341491    7.67741628708493    0.86921645725604
H         5.53156256929032    6.92049025588884    0.14090598004862
H         4.14277044367042    7.89053709165120    0.69100141458803
C         5.34053465778338    7.10796157602723    2.27826897271787
H         6.37809253723609    6.82815200206477    2.46301730773360
H         5.05065009116900    7.87667100130587    2.99669241621915
C         4.45089525349777    5.88685982929525    2.47500142355973
H         4.69245469992917    5.11360016887286    1.72715392479006
H         4.61921788924981    5.45472714583380    3.47420002949183
C         2.20763282440188    5.20196662277375    2.50593818892155
H         2.29992419713745    4.75303628861085    3.50346887839228
H         2.38003078788113    4.41978745516009    1.75483190224104
H         1.20526200617327    5.60726171713224    2.38281996097656
O         2.93768751827770   13.56692127125107    2.04232431315119
O        10.39547653753267    6.43269566271814    2.04223658062627
O        10.23355169038561   13.72864302223901    2.34300868913939
N         7.32977930996194   11.12776236928283    0.73917408453450
N         7.79452606058571    9.33642771050300    3.64608157407227
N         5.53846553256454   10.66303352971924    3.64609877083816
C         7.13077654233453   10.57329896053805   -0.44262673166739
C         7.24007870314191    9.53543349000684    4.82788936537505
C         6.09291381344193   10.46400019961528    4.82790113725314
C         5.66143861915873   11.16307363213517    5.97538638320320
C         7.67155972404837    8.83633561727772    5.97535744207509
C         7.82987595710177   11.00476489388619   -1.59009951689761
H         5.00970828918760   11.99908456645564    5.75908407645944
H         8.32328933250752    8.00032955828090    5.75903378669193
H         8.66587849187318   11.65650154569290   -1.37378327425020
C         5.94405741372872   11.00084012005960    7.31421838098949
C         7.38894835988305    8.99854135592946    7.31419444165333
C         7.66767746919159   10.72212997343910   -2.92893243676903
H         5.48691293317049   11.73191700374746    7.97204821575670
H         7.84609641273577    8.26745103618157    7.97200674267221
H         8.39876927947111   11.17926925687111   -3.58674934437148
C         6.66650434556451    9.99968424318620    7.94282848111781
H         6.66650734903915    9.99967339322914    9.02476387671929
C         4.34417674984079   11.46018843611891    3.51608204017722
C         8.98882804665697    8.53929467192508    3.51605106787785
C         8.12691342694701   12.32206483658804    0.86919334239244
H         3.58725791229588   11.13464188066961    4.24439991982787
H         9.74572392843173    8.86481403748028    4.24440491839422
H         7.80138898032358   13.07895901224797    0.14084018337973
H         4.55729967653133   12.52343397232852    3.69429528688860
H         8.77571713260632    7.47603627631706    3.69420267457727
H         9.19016999081224   12.10895226414712    0.69103398125737
C         3.77470907157463   11.32567184213208    2.10703467895608
C         9.55833104465288    8.67389775645351    2.10702596647635
C         7.99232368797334   12.89157018244228    2.27821861747238
H         3.49486481863918   10.28812153198573    1.92229707273470
H         9.83812744103830    9.71147098519593    1.92234373089798
H         6.95475917169615   13.17139763408099    2.46290131537530
H         4.54342537309094   11.61552434295396    1.38860524253088
H         8.78965373189663    8.38403574864899    1.38855839286821
H         8.28216116078697   12.12288063633701    2.99668305824487
C         2.55363706281439   12.21535115647984    1.91029936149168
C        10.77945880345257    7.78429358554322    1.91029375683471
C         8.88196689597666   14.11266790169137    2.47495774300405
H         1.78036998953785   11.97382821366115    2.65815076251456
H        11.55268133828441    8.02582464331729    2.65819009436799
H         8.64046156403695   14.88590668763994    1.72707100385031
H         2.12149525826089   12.04703623254031    0.91110435574383
H        11.21163128916936    7.95268528711364    0.91112344076369
H         8.71359519708484   14.54483690524059    3.47413162788774
C         1.86882965271047   14.45864026752439    1.87931927066415
C        11.46439881815862    5.54104457480378    1.87927399184109
C        11.12523964430689   14.79752664709439    2.50601639192779
H         1.41991000577275   14.36635356309387    0.88178299057272
H        11.91339764515305    5.63341855806046    0.88177990597826
H        11.03289011414349   15.24648415253571    3.50353034196929
H         1.08663334421344   14.28628298929935    2.63041745891580
H        12.24652084782704    5.71340626819574    2.63045146277954
H        10.95290391444574   15.57968872417640    1.75487657452009
H         2.27416264092933   15.46099712054823    2.00242815331840
H        11.05910985513384    4.53865709603619    2.00229061521342
H        12.12761191094921   14.39220956534933    2.38297703151605

