92
CSD_code = GIHVEY | q = 0 | S = 0 | Stoichiometry = C44H39ClO4P3Re | MND = 6
Re        3.19265984632588    8.70584063733393    2.36971866390534
Cl        5.49261964722994    9.43386840689654    2.38590681357878
P         3.82551519641460    6.67137803571845    3.56223789610124
P         4.18445138560281    7.54559809705090    0.45627096634861
P         8.66482244799361    6.58789158262090    2.25273302779276
O         2.77540595869974   11.23650782866562    0.63771882283535
O         0.22297727048465    7.85001741754766    2.23870868873915
O         2.67228965028096   10.31075353933193    4.96418438212001
O         9.19368981830991    5.63123786023553    1.27012530799600
C         2.88003519222678   10.29835714072677    1.28055442791165
C         1.33763953035585    8.13734674135887    2.26552803934352
C         2.83670916295774    9.71017981985573    4.00214767606132
C         4.63893732496600    5.36007866252559    2.56263080943867
C         5.80364515110330    6.69913805765455    0.68872414556427
C         6.94825639146369    6.24357425807702    2.86377318840730
C         5.95912502598730    5.68329905296326    1.83979485734377
C         6.45171909050124    4.35137821980524    1.26359450585221
C         4.77196043164894    6.74325429423589    5.11702341006340
C         5.32075026780133    7.94426687117395    5.54995505298769
C         6.02136086169617    7.99521608578830    6.74286675403210
C         6.17492308336469    6.85041294053144    7.50626547929920
C         5.61987393768117    5.65292406658293    7.08150847799463
C         4.91497674511657    5.59730967877314    5.89467997220055
C         2.34028933205824    5.80746245640498    4.17641597626240
C         1.60525265386149    6.52081035460470    5.12278598268523
C         0.43922416260125    6.00023685730224    5.64499977631651
C        -0.01367254715291    4.76099075150675    5.21852931418453
C         0.70598406719816    4.05226194515316    4.27362948738693
C         1.88006896962763    4.56909316993771    3.74989497448250
C         3.25162473444703    6.25983323721559   -0.44905007722530
C         2.11547277293623    5.69358121625742    0.11492607411863
C         1.42272647073972    4.70021323248014   -0.55440023464822
C         1.86006141775495    4.27106297029852   -1.79588403072176
C         2.98854253650893    4.83852127990481   -2.36795137011905
C         3.68334574610996    5.82825959583857   -1.69955347669360
C         4.52167370585959    8.71731222257230   -0.88961507855298
C         5.74972959868579    9.32909040645172   -1.10388056822562
C         5.87509525421346   10.29009639734336   -2.09296588803582
C         4.78471085773251   10.64941063207004   -2.86495209401559
C         3.55243888343669   10.05364272432557   -2.64216520373311
C         3.41874521608234    9.09924680847350   -1.65442654628427
C         9.62347184583952    6.62199525862142    3.80315815899030
C        10.93648130339796    6.17968417962376    3.71967080567747
C        11.75005342786828    6.19451786931311    4.83797143906621
C        11.25127758087728    6.65560477246763    6.04527318375188
C         9.94044095154285    7.09616459816897    6.13175823558745
C         9.12475979792214    7.08303736675701    5.01481369728190
C         8.75966077197375    8.30236259294474    1.64812974230847
C         8.56351997984777    9.40552310334538    2.46732554786344
C         8.69204079503011   10.67745574027999    1.94086459255417
C         9.02282672016276   10.85151479395179    0.60652493253019
C         9.23817349431545    9.75086449966756   -0.20705440940015
C         9.10816130186937    8.47658064765104    0.31502443757247
H         3.90148003894621    5.05589259014214    1.81013416459871
H         4.80790597766089    4.51453449770280    3.24143273143088
H         6.53739179258335    7.49715508284219    0.83439376195806
H         6.01813406631309    6.21914386634145   -0.27336327876465
H         6.55257221032230    7.18797656823958    3.25006952200393
H         7.06124340073353    5.54140395569010    3.69779274536703
H         7.37558294364454    4.49124694625952    0.71334099741017
H         5.70162583486222    3.92993996008360    0.59429810686331
H         6.64457306503710    3.63785144082472    2.06305171372078
H         5.21314075189134    8.83316155644609    4.94237221243647
H         6.44670134170585    8.93100532164615    7.07496657717764
H         6.72217672441149    6.88864861858595    8.43653340227974
H         5.73255215810696    4.76191645705956    7.68178692043128
H         4.46297063778232    4.66716836463064    5.57555522540408
H         1.96141204380423    7.49549812302486    5.43560791610525
H        -0.12178831111446    6.56094965803879    6.37732506182367
H        -0.92949119922401    4.35233150994934    5.61842954160997
H         0.35250641297318    3.08888619952263    3.93556194353862
H         2.41901646361484    3.99595627934803    3.01001237466079
H         1.77221403691270    6.03939074898858    1.08311349343366
H         0.54005977083659    4.26747939456669   -0.10705644248268
H         1.31990314369520    3.49829280838379   -2.32227470281998
H         3.32551991808888    4.50896040657741   -3.33986039312632
H         4.55628819704218    6.27947965808432   -2.15298628443226
H         6.60861049094142    9.08345699406139   -0.49817767575381
H         6.83251721741621   10.76478908790918   -2.25031985512554
H         4.88930201893159   11.40207476007684   -3.63233461292482
H         2.69480268601534   10.34246312969879   -3.23157076184476
H         2.45483894322720    8.64390240321658   -1.45756819804069
H        11.29808969108611    5.81567613517396    2.76852400700452
H        12.77080553009270    5.84775788749952    4.77026826675253
H        11.88337539078934    6.67002558433633    6.92115186773359
H         9.54999888249416    7.45251504097237    7.07415071808303
H         8.10298877325205    7.42352913884273    5.09561285670670
H         8.30607117162130    9.27066267837452    3.50636995657789
H         8.52640358845843   11.53738338115006    2.57235004528998
H         9.11636611386330   11.84859778762112    0.20117849243225
H         9.50461028957619    9.88438002945631   -1.24598325757365
H         9.27210257001369    7.60055497227408   -0.29743790682003

