126
CSD_code = GIHVAX | q = 0 | S = 0 | Stoichiometry = C44H72BMnN6O2 | MND = 5
Mn        6.48698471497680    6.27122774882687   14.47764715271600
O         5.26548002687423    6.48346008349373   12.78191863496026
O         4.90878018784070    6.31413261283402   15.13306499637720
N         7.58663509324315    7.90827564478549   13.62449592960212
N         8.21852084521269    6.14110120412459   15.68584582025750
N         9.39402579557360    6.34226900175480   15.05383428287640
N         8.81914575224398    4.96628592809380   13.08425107741930
N         8.67808328840805    7.47179420064719   12.96443492721927
N         7.53106608470330    4.70820109281103   13.39036691480115
C         9.83725513270330    6.29357247987953   17.20791331783886
H        10.34956861469049    6.31706286041959   18.14580120525403
C        10.39272513255557    6.44773179345597   15.95164518439601
C         5.05027978667898    3.36829559500486   11.79675619186763
H         4.04671203506653    2.94887983569361   11.82450072605053
H         5.50720754881513    3.11818490826810   10.84128007154034
H         4.98544567619428    4.44910932916947   11.87158121721708
C        11.93035662851190    8.24657636228782   15.24808478028663
H        11.26370710331352    8.50272400926332   14.42833165275728
H        12.95095707832991    8.48674018094086   14.95895607495898
H        11.66326452522444    8.85093960136361   16.11238994758873
C         6.05867828543503    1.29882884182874   12.77444447308878
H         6.74920527586339    0.89493309216551   13.51179148546639
H         6.42435960639118    1.05422012147562   11.78086005904724
H         5.09412723195909    0.81257826417773   12.90450893318777
C         6.46179953453883    7.04134438298420   18.06704569036954
H         6.99090522702016    7.93824786520679   18.38335141712252
H         5.63955842218572    6.86061666561884   18.75552498882388
H         6.06186725988772    7.21315137694447   17.06869950648785
C         5.66265676560535    9.58357615224413   14.97832063015860
H         5.22920249041685    8.58688185280576   14.93193437461795
H         4.89681611593024   10.27132913931917   15.33154411875966
H         6.48662010213651    9.58209476902208   15.68940323413824
C         9.67174321035676    7.07423669318439    9.98524678894860
H         9.34889755907489    6.16032660081724   10.47667047645048
H        10.48257713811214    6.83962310846855    9.29882096897216
H         8.83469739360334    7.46903003227635    9.41382511267008
C        10.93511759488607    2.99836953792668   10.71469926072503
H        10.68495033533140    1.96108540691798   10.92096475634936
H        11.96213420701521    3.03600191657798   10.35847051889039
H        10.28151960662902    3.36386330286597    9.92641288362727
C         8.03733389634449    5.65671373426116   19.42293991693699
H         8.74461758636481    4.83054786399073   19.42242466027368
H         7.25616987989751    5.43814792298771   20.14788299223380
H         8.55290525673221    6.55941946648048   19.74153144644586
C        12.76955180891007    6.38733191523706   16.72018210142243
H        12.59130320119523    7.00862327501285   17.59413835575854
H        13.79736236506823    6.53947366596622   16.39885060153063
H        12.64692565865498    5.34428859239769   17.00219330721450
C        11.63507936399741    3.28141580427001   13.11492212665982
H        11.52998751817132    3.89327777190080   14.00780172477362
H        12.68461642705299    3.25163628673922   12.83060585907737
H        11.31065844329777    2.27043339052721   13.35169020712355
B         9.47633791563707    6.28399027365225   13.51640863435868
H        10.59827438618718    6.33495628339957   13.16291477298799
C         9.35918605515097    3.93068495497820   12.41166725169594
C         7.24400959759280    9.08692235590596   13.10058798591000
C         8.47140895049533    6.09427169013031   16.99863100550527
C         3.74937558327802    6.44310537762650   14.48949523718495
C         1.43034363846929    6.62291004969461   14.05214572660974
H         0.41412508385040    6.66176120841931   14.40171522720051
C         8.37464567380449    2.97345998309628   12.27921492472285
H         8.46646581451439    2.02542599520442   11.79415143834559
C         0.44878708528536    6.85978108988687   11.75253586300858
C         4.01284882397233    6.53962382539536   13.08794910056000
C         2.94629380539201    6.67317095392352   12.19240124465128
H         3.18197761985209    6.73931796997823   11.14396396048756
C         1.65276029011975    6.71450736405706   12.67318501928001
C         8.12124500172679    9.39004310325498   12.05265693518899
H         8.09944547698537   10.25658073537596   11.42591832600879
C         5.89477027651532    2.81408050569913   12.95198294967009
C        10.78795336085928    3.85325037873687   11.97278349326356
H        11.14373502784045    4.86082685840793   11.74492055312981
C         9.01846620140663    8.34360548741077   11.99400826444561
C         2.17708867273582    6.41300304907504   16.48447712067231
C        -0.47384861379473    5.64598320127550   11.93195492571773
H         0.06660712152492    4.72983285680852   11.70404868623977
H        -1.32731281794291    5.72068533910235   11.26088422760192
H        -0.84686864521195    5.57689099905747   12.94976041814852
C         6.15106276177520    9.99984618171814   13.59272363637020
C        10.12998255245195    8.10557145485588   11.02245155976032
H        10.98891159732561    7.69639897228156   11.56389904744231
C         0.68546745942976    6.35366892123940   16.82456806815331
H         0.56761207731080    6.26412571150883   17.90297580794141
H         0.21291680720531    5.49106256862984   16.36043773465731
H         0.17144851502750    7.25770212751341   16.50689324297236
C         2.44252081062287    6.48538646078783   14.98824494077641
C         2.84641628496484    5.15686507707892   17.05498239524625
H         3.91553667724737    5.17576653823813   16.87120277473072
H         2.43119573229222    4.26539942319100   16.58879755011785
H         2.68094620886594    5.09543390546757   18.12917459220713
C         7.41317034933326    5.84175029220836   18.03705229308595
C        11.81127446311309    6.75691480519296   15.58967043602162
H        12.08413975363584    6.17662811759240   14.70327676876047
C         4.98614066844769    9.96325153812433   12.59618457968895
H         5.31298225538120   10.30182027557467   11.61563510954017
H         4.17739000362754   10.60730703791183   12.93595739669004
H         4.60789815631359    8.94988436182550   12.49991051085732
C         7.23852453098489    3.49637794194188   12.90530943228882
C         0.84346280160451    6.93936338752181   10.27547936816553
H         1.47729894880003    7.80240481604890   10.08787914654618
H        -0.05200582351411    7.03877971098153    9.66463289275012
H         1.36684363269853    6.03904505199245    9.96350586473705
C         6.65375279624853    4.56793513087005   17.65362417647896
H         6.24622469124955    4.67057665888649   16.64684321384805
H         5.84038320803975    4.38171269857399   18.35133737823114
H         7.32462814911727    3.71091191836524   17.66476091878563
C         6.70092038905929   11.43168446898799   13.68221928798005
H         7.57792460497602   11.46485410177299   14.32535612388928
H         5.94231238044511   12.09139935350231   14.09823532056767
H         6.97786752827799   11.81085703634817   12.70276398021028
C        -0.30727139533539    8.14666528831096   12.11181291241070
H        -0.67380854322288    8.11973391527567   13.13398984792319
H        -1.15907122911934    8.27970396368264   11.44769423321419
H         0.35061233481181    9.00680498768692   12.00815977182958
C        10.56371718114047    9.40035190396485   10.33829727404298
H         9.75911343961681    9.79677186159844    9.72445171830135
H        11.42081595291948    9.21187940841739    9.69564612664638
H        10.84212884017861   10.14987672087869   11.07541792108274
C         2.77211714911589    7.66805109055115   17.13689003245609
H         2.62722949019023    7.64079351483328   18.21526480480902
H         2.28758160478998    8.55987291004085   16.74409272515744
H         3.83586756850893    7.73920607104337   16.93301349217266
C         5.19034334874625    3.06450639943408   14.28478222520691
H         5.76927037760756    2.64818391790798   15.10692521388265
H         4.20523338755622    2.60251050575323   14.28358059659720
H         5.06490231473757    4.13491631867197   14.44152917877112

