65
CSD_code = GIJBOR | q = 0 | S = 0 | Stoichiometry = C22H37NO4Ti | MND = 5
Ti        3.74554369762825    8.51312205218682    4.10077980269565
O         4.36897600274291    8.77954839899658    5.72775441352324
O         2.94034864951467    6.98011260158645    3.74599257712569
O         4.86241416604012    9.21017019417292    2.90077484849442
C         4.93262412937403    7.75349434164163    6.46059840241948
C         3.84457196149164    6.74995067601964    6.89233242626325
H         3.18219994162150    7.23154679816137    7.60896066304211
H         4.28376836884530    5.86872244805728    7.35778326995138
H         3.25550079898414    6.46828413613498    6.01670483418976
C         5.62541575207263    8.32280048554132    7.71310845310138
H         6.34977980710755    9.08030819235204    7.42047025481374
H         6.13061670420583    7.53419624688641    8.26586376577826
H         4.88451788275928    8.79280282101408    8.35483594562100
C         6.00302509833886    7.05644613200373    5.56454146953656
H         6.90160331480492    7.68082638970170    5.58878521780622
H         6.26523518447285    6.06724486018771    5.96521120342493
C         3.57577553428886    5.93125145073416    3.09924240114957
C         2.72436341783785    4.65247549453045    3.21128022617595
H         2.54445012962840    4.41429052840405    4.25791364435353
H         3.22656334953970    3.81523436649288    2.73280991539015
H         1.76282472777038    4.81632126597949    2.73099795763860
C         3.77542696766030    6.28199891636998    1.61036138350820
H         2.80951893201869    6.27277947474296    1.10786059733664
H         4.43026958513639    5.56340829580462    1.11951591745343
H         4.18769935725532    7.29152607029345    1.53698821183428
C         4.94748118167841    5.69298054091815    3.81027768873860
H         4.75607617202885    5.10936991019357    4.71491396852034
H         5.62264605547017    5.11052015811604    3.16696998319077
C         6.21304487533385    9.01493209962724    3.08142240719454
H         6.56422467482499    9.54456741621327    3.99002515842699
H         6.77381939669931    9.41388241493781    2.21526572047626
C         6.48920534639712    7.50400271129074    3.22507867866709
H         6.32333639217053    7.03451438652342    2.25304914105297
H         7.53036219440340    7.31387861015487    3.53005093485625
N         5.52866864133051    6.97472818744250    4.18706263846830
O         2.46323026700743    9.62268078250147    4.04709215700883
C         1.38017478258725   10.37329632532608    3.97813921706074
C         0.56078891199149   10.52493472347499    5.11344996856647
C        -0.56922852828639   11.31877211486059    5.02016852455594
H        -1.21423324370312   11.44502550791368    5.87629575983880
C        -0.88817273226070   11.95929859636964    3.83451982100176
H        -1.77113336732924   12.57934214132699    3.77930883659746
C        -0.08619672106717   11.80132788750802    2.71648843002164
H        -0.35886666340638   12.29984825978169    1.79897185269428
C         1.05145531389553   11.01477418695953    2.76767794951120
C         0.95819040442991    9.74118801870418    6.34366253359339
H         2.05816904840104    9.77199714645760    6.40665378312933
C         0.36935024996240   10.29039659906650    7.64054681194130
H         0.57958014517204   11.35297610655433    7.73858162373363
H         0.80438425865590    9.77438117150369    8.49450909942715
H        -0.70812152837130   10.14199450182333    7.67258384766706
C         0.54224676624377    8.27684212040855    6.13629566421957
H        -0.52790760035881    8.21697765932105    5.94047331343946
H         0.76259903416946    7.68818008938795    7.02543074854636
H         1.08560348498948    7.85390553952169    5.28526481801456
C         1.95925589404660   10.73762574949834    1.59138841929118
H         2.99383422389975   10.74130062215883    1.97020070340578
C         1.66802373462732    9.32099052815337    1.07483004938575
H         1.83628451292171    8.59653933285733    1.87750841114170
H         2.32351612913171    9.08242601576170    0.23859798398758
H         0.63359794627429    9.24914691474907    0.73967018654309
C         1.83841806008525   11.75666136948485    0.46199550063853
H         0.86901106468399   11.68190047143912   -0.02676676438098
H         2.60724490163689   11.57255354253531   -0.28567131064821
H         1.96310285848040   12.76857690114626    0.84044793780461

