86
CSD_code = GIJFAH | q = 0 | S = 0 | Stoichiometry = C41H40N2O2Pt | MND = 4
C        -1.78239247048650   11.03373959409926   33.49821432066742
H        -2.52736343869604   10.68958032498552   34.20315678542152
C        -1.01605194407204   12.15313501446284   33.75881620926297
H        -1.15176609915732   12.70084772264293   34.67730944806679
C        -0.07504609787323   12.55147242454691   32.81674844801735
H         0.54047421355874   13.42149450248047   32.98863298389708
C         0.05905860468701   11.81415974562023   31.65744910016604
H         0.78197047646118   12.10038409337233   30.91095667175144
C        -0.74150851442440   10.69111450881631   31.44680400701154
C        -0.70468267742690    9.82161297592938   30.28756084366892
C        -1.61666484134314    8.73976382278792   30.35292686030873
C        -1.65616084941496    7.83246290557967   29.30269894881229
H        -2.34129226160932    6.99827988624476   29.33480764755577
C        -0.81406838593241    8.00777417863829   28.21457287819392
C        -0.65785993111507    7.22556554476941   27.00435870789822
C        -1.28533670129733    6.06493325997391   26.57823564928686
H        -2.03699594275223    5.58941995493675   27.18968038012627
C        -0.94726831895330    5.53056018059537   25.34984160403868
H        -1.43495837172928    4.63398566052139   24.99564261357749
C         0.01512730100307    6.13975618579865   24.54076725153271
C         0.65759617608303    7.30312676030780   24.97874945740637
H         1.40940001700674    7.76332732330146   24.35402967836994
C         0.31702158986019    7.83518576274634   26.19819647137156
C         0.86785394646687    9.07169351029893   26.86757720487460
C         0.07712280777734    9.09534453313547   28.15590534484472
C         0.14128112388711    9.99983884397157   29.18586006529706
H         0.82760854447843   10.83320851702434   29.14379592124437
C         0.60178139154317   10.32765804005152   26.01772465505136
H         0.98097604766434   11.20059861602182   26.55368889535085
H         1.15858348634859   10.24154851184667   25.08169680082387
C        -0.87722468095347   10.52678178159512   25.70993680695162
H        -1.01925086332071   11.42511904114148   25.11311486062394
H        -1.44939993982782   10.62661908246976   26.62940159408420
H        -1.26937788781514    9.67780508222343   25.15487373031619
C         2.37804507248458    8.93931405101884   27.13555465341200
H         2.90105785114096    8.88665092471234   26.17795348247766
H         2.72142472277080    9.83684856142632   27.65479973283180
C         2.72117600974585    7.71067736492860   27.96903239372219
H         3.79400031122343    7.66140789785291   28.14226482009322
H         2.41211563307963    6.80294808052628   27.45590929472567
H         2.21567141285793    7.74820402805142   28.93123707137426
C         0.58417227326033    6.45135977308243   22.21176752082318
C         1.55465240568805    6.13584687201853   21.26078161181203
H         2.12336234363450    5.22329308923142   21.36437347701275
C         1.78926907524247    6.98247371696532   20.19712029928560
H         2.54495540472940    6.72259400508366   19.46932880360292
C         1.07929048747104    8.16946058406996   20.04933325675734
C         0.11953636518030    8.48197684090341   21.00281082679749
H        -0.44937110654821    9.39619204595729   20.90901754883012
C        -0.13276395290514    7.63792341245339   22.06635459174817
H        -0.89240584995534    7.89222193362546   22.79093870870941
C         1.35673739150129    9.08034915302516   18.89182704828433
H         0.65374881156093    9.90934559593169   18.87239743794115
H         1.28165293209744    8.53679053772328   17.95099604524418
H         2.36639941471195    9.48528620711359   18.96118027989789
C         0.40047610844479    4.21094319269101   23.12462026224982
C        -0.02688331994292    3.61319414385326   21.94067236981243
H        -0.42426329613258    4.22904998493890   21.14712136114926
C         0.05296444985492    2.24339243218113   21.78136855188279
H        -0.28426439383055    1.79978068472708   20.85523036529270
C         0.54703824818527    1.42939428260548   22.79186526107827
C         0.96453996499294    2.03085100669511   23.97453239123800
H         1.35582646544288    1.41630240695784   24.77288330152614
C         0.89926847249597    3.39822639560010   24.14294065675914
H         1.23688394179996    3.84886173114272   25.06479236786855
C         0.64279596656493   -0.05664995762644   22.62207570359316
H         0.16471325460766   -0.37446547630869   21.69891680470647
H         0.16699620502162   -0.56898758975051   23.45698354151747
H         1.68733633229342   -0.36745332739142   22.59391402535619
C        -5.53791846243658    8.35251066396298   35.43233262713196
H        -5.11043098238721    9.22738979359342   35.91599013659633
H        -5.44271074358208    7.49331515453709   36.09284886652988
H        -6.59622272463547    8.52510859462997   35.24792934071830
C        -4.82273788316168    8.08229216102675   34.12324101058957
C        -5.25906647658668    6.97628704371537   33.38608350939408
H        -6.06871675703008    6.39390850359118   33.79895975902104
C        -4.73650762921985    6.56632400964274   32.16161266990993
C        -5.36029720448634    5.33670273523078   31.53170940015835
H        -4.86109932526912    5.11514995014733   30.59233985243963
H        -6.41806203593739    5.50929520881427   31.34529554434496
H        -5.26585635750365    4.48437371106748   32.20083266543101
N        -1.65717120630691   10.31885750973706   32.38143442260636
N         0.33481891895207    5.59801134679482   23.29192797076684
O        -3.89797054064385    8.86876649482618   33.80188187652782
O        -3.79644056095895    7.09992364174659   31.50096711052944
Pt       -2.73385094621356    8.73988099798075   31.99538452201452

