71
CSD_code = GIJGUC | q = 0 | S = 0 | Stoichiometry = C31H21F15O3Ti | MND = 8
Ti        3.37205876350190    3.29494424111288    4.25846469916511
O         4.13331740447666    1.89887604087109    3.51756636869923
O         2.95279888747216    2.63651958017996    5.82221405765796
O         2.02440266050345    3.47235005635316    3.14289026109828
C         4.58628226760804    4.91639754736604    3.12922707830473
C         5.54637158798119    4.15397000278156    3.84621884156897
C         5.26268851333023    4.28582397691178    5.22734740985979
C         4.15914912820295    5.17565704744835    5.36751994315569
C         3.74517216326247    5.57312242327618    4.07071138936393
C         4.60661650557180    5.15957141839573    1.64650017925387
H         5.33978643877017    5.93323885413140    1.40124496684861
H         3.63254687942265    5.49553321140522    1.29361489575699
H         4.88466526944146    4.25459839232840    1.10431872673132
C         6.70255076034810    3.44260927916602    3.20397982046329
H         7.34211892732752    4.16414457603409    2.69123423411948
H         6.35418982857448    2.71777697670094    2.46442964801432
H         7.30823966922382    2.91845080941733    3.94056490106382
C         6.04192763929693    3.72738967971919    6.38545193413009
H         6.44574215087201    4.53940592105676    6.99409628785656
H         6.87645482123258    3.11639303532629    6.04586284814327
H         5.40179497814167    3.11353019351096    7.02470288434074
C         3.69068790058968    5.71932557192692    6.68701212267975
H         3.62036802360714    4.92430441680543    7.42987790858419
H         2.71952184659679    6.20056955020284    6.59897093593150
H         4.40422914027426    6.46002741021346    7.05775530621148
C         2.71935662916690    6.61101139137612    3.71159432719108
H         1.92702837505475    6.18506554410098    3.09263318997081
H         3.19017508778481    7.42198313501831    3.15256090821185
H         2.26469720981003    7.03425663738665    4.60376305343275
C         4.71389763444330    0.84275552441035    4.17315479015740
H         3.95562550049365    0.26931171083517    4.74300210921251
H         5.48002459512474    1.19243736193737    4.88653552354476
C         5.36904289521244   -0.10297204747843    3.18178334326167
C         4.71299106988949   -0.44841800048128    2.00487218374684
C         5.29934557346950   -1.27406647677761    1.05171860726943
C         6.57907185384306   -1.77617952053641    1.26827160488038
C         7.25691627836260   -1.44386967150060    2.43759961295307
C         6.64842478085431   -0.61183739561446    3.37224874530579
F         3.47690727985372    0.01234897829329    1.77346799499334
F         4.63799247083548   -1.58650291694352   -0.06530331212520
F         7.15126944923027   -2.56854586963129    0.36268456223503
F         8.48518677650033   -1.91714461628040    2.65311309696362
F         7.32141005228495   -0.29478397063164    4.48452241360868
C         1.92983952094445    2.26902251194029    6.66058807243787
H         1.92809030089210    2.91543831644333    7.56132286524483
H         2.05563798492145    1.22438506603034    6.99223940733868
C         0.58111195686912    2.39977369199569    5.97378600547882
C        -0.36800642646524    1.38237160454456    5.94395156078632
C        -1.51160793103990    1.48142465963300    5.15573568371338
C        -1.71473444338172    2.61410638711132    4.36994751496129
C        -0.79597857885437    3.65882619741801    4.41175222384247
C         0.32987699980114    3.53792928243191    5.21670563742035
F        -0.17537822089708    0.27943428429730    6.66982263707048
F        -2.39972591067217    0.48713994344421    5.12030352823440
F        -2.78226232584799    2.68874492025576    3.57258196566158
F        -0.97865242531090    4.74840356490699    3.66612710534082
F         1.20152489733905    4.56145793325615    5.29076380762502
C         1.84071346649415    3.00661143892312    1.86556643016997
H         2.80868459058393    2.69576967447013    1.42394948185872
H         1.40823376136041    3.80160004924037    1.23227604021976
C         0.92530421523300    1.79875327156086    1.78664578328948
C         0.09434025383534    1.58089203018604    0.69054414945110
C        -0.72885150104306    0.46310390943883    0.59828938308627
C        -0.73302208704873   -0.47810198730334    1.62537655129644
C         0.09051328419987   -0.28238300334297    2.72967667826799
C         0.90174728247428    0.84537865795880    2.79486448966482
F         0.08623684335315    2.46869550580420   -0.30860954218791
F        -1.50997069487006    0.28791301792113   -0.46605652923669
F        -1.51159565925439   -1.55436617067257    1.54836654483483
F         0.10783326315163   -1.17137358622859    3.72504503675918
F         1.68995191539441    0.99366881821518    3.88203708354815

