38
CSD_code = GIJHIQ | q = 0 | S = 0 | Stoichiometry = C17H12CrO8 | MND = 9
Cr        4.48159938439686    2.17192230878143    5.07906332967511
O         2.22528091364866    2.29044828636133    8.50176427561523
O         4.72394239678512    5.94798624210276    6.86010511795981
O         2.42774796142550    4.15726856577434   11.36422491172416
O         5.10983293532870    3.38601541098851    8.46764572283433
O         6.41366647740857    2.21563281967480    9.91782056499762
O         7.31615908335413    2.80217069177564    5.73668020960004
O         5.02623507084623   -0.15460868335498    6.85538070596399
O         5.79643290737682    0.45170386413942    3.02452922174338
C         2.85376554663098    3.00826913920695    7.75875158471975
C         3.89309165347658    4.06300693399742    8.19161736514138
C         4.18597615335956    4.87127544535784    6.90660184330551
C         3.66028460573490    4.07020815708505    5.80061087560719
C         3.80071109914201    4.28163182017753    4.41100788137946
C         3.21525605937338    3.36054003900081    3.55041520660254
C         2.41537283226791    2.29499890548847    4.04419755941075
C         2.20314653085251    2.12822784204539    5.40754156771196
C         2.86178497848596    3.00703575032688    6.29714342767462
C         3.42252481059322    4.95818013413162    9.33937018684255
C         3.37479165981153    4.16712610245363   10.62626960795010
C         4.65728248687273    3.41990280486168   10.88497735292314
C         5.11640274833894    2.60819612244597    9.66486824199401
C         6.94158573601714    1.23070984501200    9.04882043413763
C         6.21827138190130    2.59556294852871    5.48288746526652
C         4.79644351064892    0.74028230564523    6.17494810135563
C         5.26584261694850    1.12047466044243    3.79278424205105
H         4.33342859927120    5.15123806384858    4.04588910204828
H         3.29140131930376    3.50009660032181    2.47890487521026
H         1.90569167238160    1.65350901499540    3.33599518047421
H         1.52635068447657    1.37532543819368    5.79396461167948
H         4.14384486972428    5.77341670875720    9.44233466823436
H         2.43919117166853    5.37523261490110    9.11425148368430
H         4.54665308804421    2.75135699006328   11.73789136263644
H         5.44972291760927    4.14090650311918   11.09970621095834
H         4.45494391407724    1.73169495705859    9.51750254302404
H         7.91818924882934    0.97722614881105    9.45447477045499
H         7.05025751855318    1.61476677478074    8.03240488106086
H         6.30259345503211    0.34226172269861    9.03415330634571

