45
CSD_code = GIJNUJ | q = 0 | S = 0 | Stoichiometry = C20H17N4O2PPd | MND = 4
Pd        0.96164168058291    4.36460251827716    2.25748654675293
P         2.03958572302867    3.04206291552881    3.71570727172147
N         2.70781664408268    1.79170690312509    2.74174493864283
N         3.40815854771637    4.08548521253549    3.97713083558986
N        -0.87991832037307    4.24317797177176    3.01162450284541
N         0.07117452236789    5.60834926892815    0.98069943243492
O         1.58391867854981    2.48339500569956    5.00252027347942
O         2.60690193311580    4.83558898580115    1.08956683985567
C         2.27027463715283    5.69626027753710    0.20295832774743
C         3.22524059891767    6.23458775628243   -0.70001712582953
H         4.24641556818322    5.89941207076203   -0.60631822093519
C         2.85027667398045    7.14215088306361   -1.65044448701086
H         3.59059955518712    7.53904082308204   -2.32975621013091
C         1.51901413002622    7.57755456817144   -1.77072364289887
H         1.26031845347126    8.29582820876152   -2.53317910865701
C         0.55928266049223    7.09446793768396   -0.92432684474191
H        -0.46590865822166    7.42531724573835   -1.00869084688554
C         0.90880617665455    6.15890074804336    0.06772493475393
C        -1.19665448473671    5.77352906827362    1.20602827774171
H        -1.83615684481762    6.43399254347114    0.62617296893770
C        -1.74811666953448    5.02274427883029    2.30861626269629
C        -3.09813473918780    5.07795616995140    2.66734670072660
H        -3.77050134520167    5.70094377712350    2.09849670700146
C        -3.54867439305921    4.33555061653937    3.74261970708430
H        -4.58851491828937    4.36824144165014    4.02990404030554
C        -2.64363035278994    3.55316330534833    4.44556639549385
H        -2.95287070616380    2.96343279779614    5.29218375847699
C        -1.31415946660890    3.53794594091820    4.04413245681611
H        -0.57544777115420    2.94855429190239    4.57566331978853
C         3.49588745033593    0.74220817241501    3.11674602433669
H         3.84625044041586    0.65702315966886    4.12700827263213
C         3.68171114110058   -0.07265909580445    2.03845162897321
H         4.26310261783197   -0.97360437307304    2.01058913824189
C         2.96303517204207    0.49188985454339    0.95895353955083
H         2.89295535350297    0.09294987254622   -0.03433788726968
C         2.37103357777425    1.62862987844111    1.42494831024278
H         1.71333093191918    2.34329744040928    0.92530093417424
C         4.73651051888289    3.85460532571414    4.15611365982038
H         5.12909816574584    2.85632476272839    4.15704419263154
C         5.37668563743183    5.05420984443188    4.29593802762032
H         6.42777898308040    5.20260712355336    4.44981757587749
C         4.39629167031097    6.06538346135454    4.19885050948691
H         4.56240951394642    7.12310450726462    4.27014289960063
C         3.19902506107157    5.43889698073783    3.99977238568128
H         2.18655625124985    5.85038955248383    3.91722277662447

