50
CSD_code = GIJNUL | q = 0 | S = 0 | Stoichiometry = C21H24ClCuN2S | MND = 2
Cu        3.98580047620694    5.36862627410069    7.34735461915461
Cl        5.79961716429279    6.33190054863157    7.59603692315926
S         2.05151003043914    4.34508542570738    7.26555922242044
N         2.59695239710130    4.23459599556764    4.57037410379396
N         0.79720629884487    3.18238790987343    5.20447771954163
C         1.83619509955823    3.92855695815957    5.64696271315051
C         2.02672686236703    3.67163857915141    3.45376323220191
H         2.46530499028666    3.79376711967856    2.48506652803211
C         0.91113354319857    3.01930732580874    3.84676452418984
H         0.18965390763556    2.46111950819416    3.28675329484054
C        -0.24309312329203    2.66093669592765    6.02021861561018
C        -0.13339910245213    1.35976261942837    6.50676690194538
C        -1.16375602999416    0.86520024203284    7.28960027110429
H        -1.09373962021639   -0.14034043892918    7.67807928022604
C        -2.27695983774679    1.63762570564955    7.59501378920596
C        -2.34882363662194    2.93337731572776    7.10448264886990
H        -3.20446425995637    3.54684829845449    7.34594417395955
C        -1.33989399029873    3.46608896302812    6.31659567398549
C         1.08497462414112    0.54201757814398    6.20678654817271
H         1.96614795731995    1.02493478251485    6.62828031768004
H         1.23727024568005    0.44299760204539    5.13234044343845
H         0.99587778622339   -0.45062452137717    6.63869253464491
C        -3.38360789707453    1.07024462023576    8.42891139346786
H        -3.98683555798024    1.86140031606647    8.86611810628364
H        -2.98453627997741    0.44783494208707    9.22638528478054
H        -4.03255053139232    0.44828057508222    7.81172279478250
C        -1.40129111902224    4.87492556733755    5.81445940071199
H        -2.36611652463506    5.32080512277850    6.03809210382575
H        -0.62566911293668    5.46794338189471    6.29841909830582
H        -1.23594898019206    4.91659159106181    4.73828950130128
C         3.78325966972152    5.02156289920678    4.55204997425751
C         5.02383078263511    4.37834984913496    4.53876982444515
C         6.16313953266206    5.16119789921878    4.46996032065627
H         7.13126310742224    4.68402238195146    4.49072657499868
C         6.08995914371821    6.54729248749051    4.42075437251073
C         4.84146350915454    7.15470731628686    4.40232408395769
H         4.77721351437479    8.23196402302790    4.36705585726739
C         3.67426110312497    6.41244562874589    4.46812135544151
C         5.09979886222656    2.88365122258788    4.63055917692376
H         4.60992169733491    2.53600319434847    5.54039662956245
H         4.60535582943151    2.41269075332746    3.78023799726411
H         6.13576240257622    2.55888881929960    4.65428024473496
C         7.33371286967170    7.37064858985838    4.45321379853680
H         7.58885243452488    7.53992479551392    5.49973529933572
H         7.18411469653189    8.33576682303480    3.97577328528392
H         8.16416204065076    6.85386782502912    3.97858874641238
C         2.32471321399231    7.06599257498415    4.47376759786189
H         1.68964968501469    6.65998294840501    3.68574048815694
H         1.82822570149069    6.89466515911145    5.42952468217690
H         2.42175442418188    8.13773820543497    4.32750792747317

