97
CSD_code = GIJPUN | q = 1 | S = 0 | Stoichiometry = C42H48CuN4Se2(1+) | MND = 2
Se        5.76635874627569    1.52570423041618    7.35108836730681
Cu        7.43176107536586    0.00023325144101    7.15330367575935
N         4.65180714117564    2.31743117625134    9.81358036992268
N         5.59475422098810    0.36562518389542    9.98033819837577
C         5.32683555720823    1.37618853775294    9.13288289653912
C         4.48904460732103    1.89722112610800   11.10495766417112
H         3.97676002133005    2.49224547204653   11.83264539441421
C         5.07884667793475    0.68353359608682   11.21142316308966
H         5.16778785090892    0.01882444847416   12.04564781734238
C         6.28991621957816   -0.83968715720160    9.68151511255761
C         7.60505610378537   -0.99039728160422   10.13399805755152
C         8.23498653069647   -2.20649743730382    9.91792916826274
H         9.24779866051633   -2.34468645337173   10.26743265100613
C         7.59088282924044   -3.25587201850731    9.26700644305838
C         6.29021421784839   -3.06768974702563    8.81994956656249
H         5.78087253720892   -3.87330481456473    8.31196134064820
C         5.61633727850957   -1.87169781824464    9.02192577064468
C         8.30509639075329    0.13417188743311   10.83490327663545
H         7.93612487194246    0.24337131263386   11.85492150937299
H         9.37324535110242   -0.05786745927991   10.87848254033765
H         8.14334415248946    1.07872448547230   10.31518407274330
C         8.31319826063130   -4.54130497668688    9.02955801240633
H         9.07503852042920   -4.38756116901360    8.26285881742437
H         8.81628407674340   -4.87300302984580    9.93481914109534
H         7.63405381914347   -5.31893068089235    8.69219357637149
C         4.20231891276397   -1.68759554858309    8.56442789590383
H         3.80589726986543   -2.61662972779154    8.16573589512321
H         3.56664487070675   -1.36368368178214    9.38857422940040
H         4.14831128832434   -0.92971052554575    7.78047889275482
C         4.20605629284941    3.54671658021876    9.25061590391819
C         5.09952601776425    4.61485000165971    9.16522301089525
C         4.64686159050732    5.79740973557516    8.60463122171297
H         5.32353514942417    6.63544820326041    8.52679541404507
C         3.34400289561628    5.93010791162903    8.13856387332752
C         2.48408601972745    4.84544699024628    8.23520012829231
H         1.47177825160363    4.93438092567435    7.87038744932677
C         2.89611532143036    3.64113973963170    8.78549168374667
C         6.51099283254440    4.46753343149149    9.64362151749697
H         6.54407345539654    4.07589126360453   10.65998001435067
H         7.05280167817634    3.77686138951773    8.99410366615331
H         7.02237323743252    5.42527322945300    9.62361749123903
C         2.89523538186718    7.22165558915045    7.53260980712238
H         3.43785521487609    7.40886592209422    6.60670454634045
H         1.83173934267524    7.20327249748298    7.31240647559388
H         3.09964131914061    8.05004769533310    8.20831403689486
C         1.97983096018484    2.45907755413711    8.86015291857879
H         2.40081783735496    1.62384322315252    8.29890521525359
H         1.83832013669809    2.13589536403382    9.89127800598117
H         1.00914199647866    2.70134079146021    8.43835298697530
Se        9.09719872235236   -1.52550687433029    6.95486138013873
N        10.21200014288381   -2.31747711258999    4.49244487257367
N         9.26905125034365   -0.36567713564253    4.32563584522537
C         9.53704212465606   -1.37617224660161    5.17313902482806
C        10.37463284610064   -1.89738266398264    3.20101761920819
H        10.88683525906352   -2.49246874035889    2.47332735517333
C         9.78479887247092   -0.68370997159227    3.09451610464525
H         9.69575011198079   -0.01907541721440    2.26024731646203
C         8.57385933349294    0.83963988873126    4.62442789315533
C         7.25862170998629    0.99029022338818    4.17207897837161
C         6.62871316383038    2.20642362709107    4.38808875191410
H         5.61586888626778    2.34460469264634    4.03860494317382
C         7.27290076496880    3.25588155104226    5.03883150639021
C         8.57365223056065    3.06778247227514    5.48572522624557
H         9.08302970427711    3.87343886169060    5.99361530054079
C         9.24752506080477    1.87177739546473    5.28379853243746
C         6.55848886202623   -0.13434867984094    3.47134078536585
H         6.92734000949646   -0.24368678301767    2.45127858213239
H         5.49035245852998    0.05773827224234    3.42783534836037
H         6.72026349466010   -1.07884935039566    3.99118127789273
C         6.55061632269020    4.54134421507885    5.27619079448099
H         5.78891856939337    4.38767116664874    6.04303564276601
H         6.04737695118933    4.87292745246890    4.37096983958430
H         7.22980253681941    5.31900540421894    5.61336694306509
C        10.66159400778104    1.68770915102138    5.74116932886542
H        11.05805658764804    2.61678119642234    6.13972390015380
H        11.29711265856604    1.36373232133113    4.91692539936507
H        10.71572928821824    0.92988436420832    6.52518658094829
C        10.65774630437254   -3.54673422962278    5.05544922853360
C         9.76424703456802   -4.61482866176702    5.14103126707231
C        10.21694574157589   -5.79735547258250    5.70166542350188
H         9.54026155775352   -6.63537394785460    5.77963461435800
C        11.51987119792010   -5.93006578638170    6.16754759214514
C        12.37980737606655   -4.84543764883617    6.07072146925150
H        13.39215787802552   -4.93436728193390    6.43541170304971
C        11.96772488534508   -3.64114538097893    5.52044773926257
C         8.35268730302640   -4.46748664215977    4.66288753860132
H         8.31944856431912   -4.07594599984303    3.64649600417268
H         7.81097792260617   -3.77674607421737    5.31242218418838
H         7.84129151829164   -5.42521644696681    4.68304382341835
C        11.96869458769017   -7.22159310800172    6.77349297055811
H        11.42618516454658   -7.40877112121384    7.69947126772632
H        13.03221880320389   -7.20320602894710    6.99355974965647
H        11.76420163045695   -8.04999964230190    6.09783080679339
C        12.88398969419625   -2.45908736464688    5.44561092603445
H        12.46306268383244   -1.62383765436475    6.00689164445765
H        13.02535416670643   -2.13595007179709    4.41445063054412
H        13.85473106189777   -2.70134193555399    5.86728945917883

