61
CSD_code = GIJTEB | q = 0 | S = 0 | Stoichiometry = C28H29BrCoPS | MND = 8
Br        0.95309000576164    3.70921289236904    3.36393705072209
Co        3.25299303235238    4.14995867130621    3.61359417015927
S         3.53020347904773    4.85603888993178    1.42042880854568
P         2.70792535173512    6.24146375723371    3.90865355766219
C         5.23267534524176    3.92186697599798    4.14100514961329
C         4.11110714299720    7.40470025305046    4.01458588634803
C         5.89637213337604    8.61511719786981    2.94883445950162
H         6.40496611383186    8.92371412132500    2.04743111972363
C         4.85724837520985    2.82945166881563    3.28949444331823
C         4.77920598464859    7.80442432295094    2.86130483673063
H         4.42285375494045    7.48180887057676    1.89377557136815
C         2.31586408444729    6.08752506348018    1.24828186132947
C         3.78596361718638    2.14279107794923    3.90808378420099
C         6.41897629752319    4.79766721951216    3.90432961556100
H         6.43037961736861    5.16304563658577    2.87856484381169
H         7.33317002888392    4.22437448569965    4.06895955062061
H         6.42444041341407    5.65704850207412    4.57042161079993
C         6.36255813050725    9.02858245493002    4.18574528470304
H         7.23723889032407    9.65838448747799    4.25262304587452
C         1.49357022618307    8.18895847097388    5.48433327575776
H         2.01808532285928    8.89618116632621    4.85557356941893
C         1.00045969496433    5.91629755515591    6.10020464384019
H         1.11471181598597    4.85553023156210    5.93429332403820
C         0.02255081819787    7.73260029900441    7.32435434933769
H        -0.61470701883912    8.08955831239847    8.11975720233181
C         1.65351617886260    6.82007428361822    5.27212263471115
C         4.58507864474096    7.82358005861579    5.25575485660624
H         4.06540117278050    7.52809663360485    6.15679846415094
C         3.52948263751606    2.77149985194694    5.17548886678062
C         1.86489502745886    6.76524692699575    2.39059133663374
C         0.18724341243898    6.37315039355089    7.12287254334093
H        -0.32203072895015    5.66517771350112    7.75940754437524
C         4.44390658123778    3.84678066059624    5.33224204380274
C         0.32238665750965    8.01102065139341    1.04933144921011
H        -0.46947639963381    8.74019920472032    0.97006850593747
C         0.80227643178205    7.37748086151956   -0.08767353442771
H         0.38679368359774    7.62050904113779   -1.05445925970335
C         0.85025299954620    7.70335608115223    2.29184686723477
H         0.46502912675731    8.18239492112572    3.18000915342323
C         1.78907444670822    6.41554138754894    0.00383030570551
H         2.14708143301491    5.89664114594760   -0.87220896937122
C         0.67751577027647    8.63881716002819    6.50460948242125
H         0.55221668326483    9.70040171119599    6.66144137418551
C         2.60938785683644    2.22630541023308    6.21797163586216
H         2.48834263174018    2.92438373001308    7.04289212064542
H         3.02439231301907    1.29621237680284    6.61044955042560
H         1.62977284615876    2.00318448476365    5.79734810514531
C         5.70206598909599    8.63413236956228    5.33833823209752
H         6.05906580275195    8.95853784163574    6.30538822090806
C         3.15290260146044    0.87178122177145    3.44800363665672
H         2.09044165238287    0.86068862040196    3.68234925207827
H         3.62616878556027    0.02693146617131    3.95234987291952
H         3.26890983912919    0.74322561246713    2.37490405234839
C         5.57562865757816    2.41238264958352    2.05048731068409
H         4.90034757418800    1.92764970906455    1.34939353857506
H         6.36530471014286    1.70599944636100    2.31451969377409
H         6.02751657232623    3.26676352415974    1.55263403524444
C         4.66366096107527    4.61083080218350    6.59878921009378
H         5.30240703995590    5.47360634879365    6.43007098584512
H         5.15371472777704    3.96031276397440    7.32615122636362
H         3.72382302176395    4.95200034930030    7.03181464000226

