54
CSD_code = GIJVIF | q = 0 | S = 0 | Stoichiometry = C24H25BN2OPt | MND = 6
Pt        3.00753546540669   12.40073042312334    4.86101553262633
O         1.08338834712462   11.79375080202567    5.81643246369024
H         0.88902982226753   10.87329070613847    6.00046069600151
B         0.12191428862027   12.33819208728429    4.78578687328986
C        -1.41546677484069   11.98557591694827    5.18248758756152
H        -1.65394233657926   12.34720210130309    6.18095264980649
H        -1.59541361174122   10.91026644098542    5.18099051356290
H        -2.13702782519462   12.42838774191170    4.49963348590040
C         4.64234811550416   13.04347015800074    3.77918679792615
H         4.28696797473883   13.80337074922070    3.07629457622585
H         5.08085312345325   12.22641725306572    3.20178259662868
H         5.43943880139859   13.47428775691687    4.38519696109540
N         1.89169142548960   11.75040157427507    3.07029946575918
C         2.35674320268365   11.36130864449996    1.88897100728823
H         3.43274983327730   11.32417308069665    1.77958239895492
C         1.52814349807349   11.01032348407509    0.84159561345812
H         1.94498267615806   10.70068066709336   -0.10404325899881
C         0.15558367729079   11.06823359282269    1.04363489601735
H        -0.52761355785759   10.80237577286766    0.24919776098928
C        -0.31574602517246   11.46504243079840    2.27893877328505
H        -1.37547800176297   11.51166637150858    2.47233801371810
C         0.57331339589171   11.80373970685595    3.30118090952036
N         1.79035536077826   14.21897756844048    4.63071907143258
C         2.18402537247822   15.47904184446397    4.48851820795882
H         3.25030284875826   15.65381864230657    4.43279142815407
C         1.29907623431813   16.53496178952833    4.39973884290337
H         1.66290285808274   17.54404383750120    4.28361832327240
C        -0.05952306867678   16.25814564484791    4.46468666629365
H        -0.78628825194026   17.05615986964143    4.40628639393395
C        -0.45907313589425   14.94435502040586    4.60193950046528
H        -1.50592622290320   14.69224956166577    4.65437807321581
C         0.48657240111519   13.92137451299621    4.68697381187407
C         3.76372282603334   13.02647340910461    6.63906664655317
C         3.50670011790204   12.23748618452640    7.75659515959537
H         3.03398897703861   11.27004601794903    7.64761881091365
C         3.85505150152339   12.66097277580793    9.02895774093901
H         3.64241626304755   12.02933877493710    9.87991213535605
C         4.47335610083408   13.88476892928923    9.21233823789521
H         4.74664436777444   14.21653900769337   10.20354390765811
C         4.73941954666620   14.67772592919547    8.11190641988470
H         5.22392132267972   15.63592020137119    8.23905406644449
C         4.38741328528735   14.25233383419088    6.83962666071921
H         4.61933135659538   14.90189306952946    6.00761704694559
C         3.93249261827426   10.60840956357468    5.09820205710491
C         3.19353833980246    9.46506265315199    4.80663504051000
H         2.18472812959786    9.53688626282463    4.41606942973148
C         3.72360950979163    8.19746315228441    4.99544418750952
H         3.12602257033122    7.32726065380474    4.76083566238266
C         5.00926355952783    8.04655652120749    5.48038541324003
H         5.42338547005801    7.05980531992235    5.62823239732046
C         5.75828387034751    9.17269623825469    5.77365734014607
H         6.76425169592586    9.06724788421787    6.15410124990071
C         5.22654289780285   10.43818220473796    5.58544498098645
H         5.83109576281275   11.29991565821157    5.83068877445217

