73
CSD_code = GIJVED | q = 0 | S = 0 | Stoichiometry = C40H24IrN3O3S2 | MND = 6
Ir       -1.19458756106378    4.85505386495003    9.81038513220003
C        -2.92938730838560    5.29407674414285   10.70660332797286
C        -3.99757467543830    6.19807226702932   10.44042819207353
C        -4.21004645543871    6.98598821486424    9.30422414150811
H        -3.50120413212095    6.92957085893718    8.49349044024564
C        -5.31456864453531    7.80405246956871    9.24274827307498
H        -5.48147358474001    8.41634976992991    8.36937226272623
C        -6.22934899602095    7.85323203972943   10.29575809709535
H        -7.08895144773826    8.50321755229652   10.22639068202504
C        -6.05441894756913    7.07683837267551   11.42363302428571
H        -6.76250122429170    7.10345787218879   12.23780129810005
C        -4.94230507609034    6.25307048746511   11.48785102014074
C        -3.08075740804212    4.66846039016264   11.93425750698399
C        -2.10849939723575    3.68909460724750   12.29614783322837
C        -2.05962223834775    2.90074441862929   13.48884323973572
C        -2.98408586758434    3.02143897954273   14.54296069651490
H        -3.78309520004025    3.73907363837844   14.47496377434884
C        -2.88161682952884    2.23833092740753   15.66345732758389
H        -3.60161123685427    2.34712838148070   16.46017658496804
C        -1.85285555912767    1.29807989258669   15.78726623494142
H        -1.78824698862738    0.68867292478965   16.67620176326147
C        -0.93357573617039    1.15773646145919   14.78253764620638
H        -0.13112619297714    0.43909965532156   14.86246204977913
C        -1.01380668591494    1.94913747723041   13.62355534668921
C        -0.07426710143949    1.83233963916539   12.57332189478430
H         0.72279628924505    1.10968115627444   12.64470054317577
C        -0.18500191585970    2.63644554342379   11.48071916084583
H         0.52377632787555    2.56764571900070   10.66781099543730
C        -1.81509817342715    3.43574227876542    8.51933329681276
C        -3.01366893378979    2.69076194684138    8.29826355585424
C        -4.22228932214183    2.72836360985192    9.00252381360496
H        -4.32246263823431    3.41091233060455    9.82983599510683
C        -5.26210021850679    1.90926572695372    8.62906557126694
H        -6.19387212824641    1.94383624428862    9.17381107508436
C        -5.13390580304081    1.03210765103179    7.55102833972062
H        -5.96352752626366    0.39890068563776    7.27421342445086
C        -3.95785442715695    0.96927980831413    6.83421921368455
H        -3.84580761182516    0.29754312186459    5.99694463155234
C        -2.91047756834753    1.79589377925018    7.21151505602845
C        -0.84361876235340    3.11993876997202    7.59088676157066
C         0.46891028847867    3.69886887498692    7.67741786371771
C         1.50734552697182    3.63126313257859    6.69564321368444
C         1.34317172750613    3.08620200209405    5.40816826504722
H         0.38290126151480    2.70610208595497    5.10529430474433
C         2.38431279747756    3.05388531899295    4.51888094458309
H         2.23581637710278    2.63440724500948    3.53536920453455
C         3.63998399539842    3.56694444740652    4.86674697022978
H         4.45063993714506    3.52708321300845    4.15437998886205
C         3.82762075585941    4.13133388391185    6.09788383089194
H         4.78266227314626    4.55328173402598    6.37560439242858
C         2.77262745107013    4.18780638589291    7.02804578893253
C         2.93117298469209    4.79988808161074    8.28999414009018
H         3.88412491133865    5.21847669632197    8.57319072406552
C         1.85744005903925    4.87214331953679    9.12705100205953
H         1.93872866442287    5.35223615417859   10.09400106594971
C        -0.55265484385378    7.38378008055131    8.62817860033208
C        -0.08412818700653    7.52236115402496   10.06229269904654
C         0.04827751707364    6.57143529956033   12.14782943951709
H        -0.16858176950953    5.71650776234509   12.77304207622006
C         0.68129192390463    7.69300982396404   12.66363515762869
H         0.96363249152383    7.71623847648089   13.70453230204407
C         0.94450278154595    8.76677243025415   11.83813539799220
H         1.43674662192401    9.65671346689817   12.19707891266934
C         0.55750149791337    8.69753449824977   10.49371374061414
N        -1.16415262803280    3.55149509938605   11.33348112195116
N         0.66335757148055    4.34046095356746    8.83603359293922
N        -0.32098363947089    6.49369244843116   10.87687021412934
O        -1.17270299901599    6.32628080074014    8.33363842804961
O        -0.31023767593853    8.31092784818992    7.84467548819933
O         0.79705702765987    9.70524830466344    9.66733692033320
H         0.43198249172744    9.43286262754087    8.76703265290138
S        -4.52857861559155    5.18172524249450   12.79423745016967
S        -1.35644167009722    1.88379482789393    6.44867488076570

