82
CSD_code = GIJYUW | q = 0 | S = 0 | Stoichiometry = C41H36ClIrN2O | MND = 8
Ir        2.85744571612893    4.76319468072989    5.13406859873891
Cl        4.92684681103708    3.93424691656237    4.41223674142892
N         3.31866200172521    4.76840502161119    8.07063063932424
N         3.61031408600245    2.74628023095407    7.30226886805256
O         3.88075513302320    6.43188767034039    5.91374302659335
C         3.27459086261037    4.00633333767993    6.95061287488305
C         3.89732505517721    2.69657461924900    8.64566516207899
C         3.73493389895295    4.00145295022023    9.14131825937131
C         4.04110146124058    4.29959244291274   10.46271104862236
H         3.98771944791986    5.30658148340322   10.84193222517008
C         4.45115327720033    3.25603953907774   11.26957120860449
H         4.69769946289600    3.45554676462490   12.30101040822001
C         4.56098553189125    1.95253846653289   10.78650469239942
H         4.87567680458944    1.16789006085691   11.45698372393460
C         4.29558559344450    1.65082929948710    9.46562630224748
H         4.39698704442298    0.64708510771998    9.08571013077557
C         3.02792846193822    6.15067787225911    8.11769566327856
C         3.37800924958736    6.94302033047153    6.99444671114787
C         3.16787888994075    8.33090228946261    7.10930926610037
H         3.48085864508057    8.95481021301455    6.28564301765493
C         2.58747348706600    8.87796062588771    8.23153199921308
H         2.43637896261057    9.94632830271627    8.28560641693379
C         2.16473880722570    8.06876840978395    9.27629633182310
H         1.66897069183218    8.49595114840806   10.13393273771546
C         2.38755489744693    6.70516819672862    9.21336475839728
H         2.04886948276412    6.06466653403871   10.01428990434334
C         3.68938609262570    1.60315191536073    6.43245439234263
H         4.62047857979103    1.07060455849626    6.65251491444699
H         3.75983067002799    1.96954895762417    5.40345315275014
C         2.52170558478860    0.65730214651016    6.55698522593254
C         1.43668876290635    0.90968759810813    7.38264213591341
H         1.41253346225855    1.80000197141858    7.99384827317891
C         0.37548130390098    0.02027183976723    7.43709930872267
H        -0.46515747423283    0.23184470455203    8.08195243925183
C         0.38972967264283   -1.13022774657742    6.67045172811096
H        -0.44013297807538   -1.81965324474020    6.71007062785207
C         1.47777402018227   -1.39751804958707    5.85586637600565
H         1.49755955640365   -2.29718543193908    5.25932904743592
C         2.53525744172134   -0.51030632675252    5.80262382231318
H         3.38457710316728   -0.71334687835728    5.16820086885247
C         1.37379240448933    3.67215772089524    3.89545007525098
C         0.65095847347816    4.30032048390439    4.96339863278777
C         0.85305375808754    5.70513115374495    4.85913223075569
C         1.60107488283980    5.96456886694790    3.65272786918697
C         1.92657058814101    4.73604871556089    3.06285853505878
C         1.33070875138172    2.26137301962666    3.50378866024967
C         2.47673963305140    1.62410352434879    3.02306916763858
H         3.41273764270603    2.16193701700549    2.99640711367666
C         2.43084603184596    0.30918131487939    2.61095637697579
H         3.32535210024379   -0.15402328524243    2.22095684114410
C         1.24488791341940   -0.42081640569935    2.66630778997059
C         0.10363473408936    0.21579820292124    3.14797193710348
H        -0.82478106189576   -0.33236726772896    3.21689270476147
C         0.14238510719011    1.53352815735208    3.55497075904495
H        -0.76611581505875    2.00973675992544    3.89037426047382
C         1.19925414952410   -1.82368107191181    2.23336340350900
C         2.25519812496573   -2.68979169191414    2.51197090077317
H         3.11268346764507   -2.32650248577758    3.05918838358603
C         2.20725109988316   -4.01282898318924    2.11494855564484
H         3.03162076786461   -4.67251316522486    2.34490021372380
C         1.10682174222628   -4.49451968910660    1.42585521549951
H         1.07064354552014   -5.52791521913853    1.11411116186638
C         0.05442616929115   -3.64227719402108    1.13637961962664
H        -0.80383293502678   -4.00979746081366    0.59244617410911
C         0.09859016213883   -2.32034278632756    1.53802621755174
H        -0.71863042811689   -1.65795233123834    1.29188663834412
C        -0.22444020083301    3.63465850980418    5.97713367065385
H        -1.27059293086068    3.73292775941814    5.68042484420639
H        -0.11546247334252    4.10294912248064    6.95450657392446
H         0.01555225306387    2.57812766311323    6.06525010599601
C         0.18701351424902    6.75674532748095    5.68436935824881
H        -0.74772714899462    7.06312025764155    5.20999133306368
H         0.82202401292383    7.63527797843519    5.78209249844137
H        -0.04200628819641    6.39029454835460    6.68286527916968
C         1.89968176316177    7.33436699331019    3.13787686088549
H         2.49266226601444    7.88983999015668    3.86425586637617
H         0.97260392355184    7.88351019235541    2.96618435672918
H         2.46242128363665    7.28876406830228    2.20925712454920
C         2.58667796732121    4.52861672610219    1.73761923638405
H         2.38105216499921    5.36799622366750    1.07540435678843
H         2.21776588393033    3.61485103380764    1.27443687141315
H         3.66784743753110    4.43858917704701    1.84728919457330

