85
CSD_code = GIJZAA | q = 0 | S = 0 | Stoichiometry = C37H41NNiOP2Si2 | MND = 4
Ni        3.40180388493789    1.23195146887564    3.87893392435969
P         3.55961521745487   -0.64893805222239    4.94453947613617
P         3.12280917094463    3.06954099195418    2.78809564414353
Si        5.20533011039178    1.28698658609788    6.45715164057699
Si        4.33308592521014    3.99840534527065    5.32855103266735
O         3.07500534066940   -0.03801564423804    1.55338587773147
N         4.32287067399938    2.28986466624198    5.38700695542335
C         4.10707950625836   -0.29568361816060    6.63619321378073
C         3.10920214850908    4.48670498744004    3.90884926293350
C         6.90828467574877    0.70570186282404    5.78992500054923
C         5.49563662709895    1.99738710616883    8.19557565306830
C         6.02163682048623    4.80581571725920    4.92999417206319
C         3.66128770345643    4.85818288449984    6.89582516310728
C         2.52872182567311    0.41428539296766    2.53071009778312
C         2.07808274768447   -1.71193040607431    5.04153126095422
C         1.83781165078221   -2.62583833764747    4.01768702171288
C         0.65961565763292   -3.34598638407987    3.98456473550868
C        -0.29985426662204   -3.15536128116403    4.96583925906336
C        -0.07531669578720   -2.23965858140250    5.97928373287843
C         1.10295848300920   -1.51639305482297    6.01307464325364
C         4.79781057167388   -1.83922813568485    4.34773428851281
C         5.52948525241098   -1.55447125131483    3.20134498202821
C         6.49867128500046   -2.43735349824201    2.75745100163278
C         6.73732092088846   -3.60972727451221    3.45421769404330
C         5.99861101221165   -3.90570580076638    4.58974927704588
C         5.03117218176903   -3.02547643518531    5.03590066394429
C         1.86747020886865    3.35932137724067    1.50343733264021
C         2.05244407207311    2.80621442941856    0.23802707830301
C         1.06330797392119    2.91146373568113   -0.72048431242053
C        -0.12716877574586    3.55617409719178   -0.42403569880109
C        -0.32568416687605    4.09272399831226    0.83679244775641
C         0.66344164531358    3.99025199439450    1.79784442635079
C         4.69551190957601    3.25755296377120    1.90685759012656
C         5.70447455768276    2.36982716651758    2.26551133474936
C         6.95328120955421    2.46047982885002    1.68090059636889
C         7.19518024643516    3.44218316808491    0.73239031446416
C         6.19241526436425    4.32961608037094    0.37321419125581
C         4.94123912648075    4.24153960719873    0.95748662921049
C         1.05983854567381    0.38376310887443    2.76962617849226
C         0.54315971134657    1.00255812662626    3.90812973470407
C        -0.81394190171461    0.97318279215270    4.15482170416705
C        -1.66148633754835    0.32478050709514    3.26811413195625
C        -1.15266102842529   -0.28930997207569    2.13558812979317
C         0.20611188798812   -0.26202222826106    1.88221240925759
H         4.61234308302595   -1.15829108024980    7.06651151051758
H         3.23701630639026   -0.05227435319668    7.24247382623428
H         3.38215759838558    5.39206283475642    3.36706736208044
H         2.10518721364206    4.60274545005430    4.31367562442641
H         7.53847107071411    1.56175463621744    5.57010434994937
H         6.80583712291122    0.12590426139294    4.87678395882185
H         7.43320493952429    0.08743848109953    6.51249466837575
H         6.14886608721454    2.85782557936192    8.12145018768789
H         5.97085117826653    1.27638214339788    8.85101227821782
H         4.57469757405339    2.32294321344673    8.66327919196448
H         6.41031086374227    4.49991395100753    3.96381576635673
H         5.95933322804263    5.88961248089603    4.93695661483082
H         6.74609437889063    4.51518129077072    5.68332889097375
H         4.39000222562030    4.77783163090512    7.69242456042537
H         3.47508900083233    5.91374586937976    6.72589557439089
H         2.73943784070209    4.40862316950059    7.24856319779917
H         2.58136626449599   -2.76255050000185    3.24412445564054
H         0.48452334422368   -4.05434796401662    3.18798933714993
H        -1.22267642379167   -3.71570104120544    4.93698062290755
H        -0.82432288663237   -2.08377624634737    6.74232883810624
H         1.26299388339201   -0.79054077385781    6.79774062399151
H         5.31920246252214   -0.64578341582290    2.65113063976516
H         7.06560833624592   -2.21200598176397    1.86597914624916
H         7.49459929580556   -4.29915793241606    3.11039269312075
H         6.17847470292974   -4.82652587587985    5.12583203224127
H         4.44455246813609   -3.25957140062752    5.91423527852171
H         2.97476607184174    2.28722993268899    0.01642723180278
H         1.21714624441979    2.48488684758178   -1.70095533676632
H        -0.90108081395793    3.63550786813388   -1.17332025547406
H        -1.25600542102853    4.58904499685868    1.07284223629533
H         0.49952856613292    4.40240318872902    2.78337501494495
H         5.48905181031984    1.62223731393383    3.03706821574216
H         7.73747285623889    1.77246302884223    1.96150452946321
H         8.16873234143528    3.51794125341639    0.27018556536593
H         6.38876024547461    5.09325969783124   -0.36567866230410
H         4.15390274390020    4.92813072761895    0.67618894326530
H         1.23190318732049    1.50574219863922    4.60035984269442
H        -1.21882176055128    1.44965066121422    5.03562049729622
H        -2.72379694920239    0.29899806387509    3.46235844516679
H        -1.81913591398568   -0.79085898521528    1.44940541415304
H         0.62318305316527   -0.73433525734320    1.00539719359721

