110
CSD_code = GIKGOW | q = 0 | S = 0 | Stoichiometry = C52H52ClP4Re | MND = 5
Re        0.09837458243427    3.36965438268192    4.29862026550488
Cl       -1.68338431057724    1.74854642081251    3.78511455424600
P         0.19174432913173    2.48278283931881    6.52780127417679
P        -1.43279454474248    5.01773874748658    4.99301416175966
P         0.27592886126391    4.35790678743205    2.12659849930907
P         1.56157903793125    1.66117970084275    3.54650332374776
C        -0.78370354328576    0.96918237925809    6.82401459979108
C        -2.85786134230394    5.53665968219875    3.95067796448792
C         1.92714568050679    4.57284316559100    1.31914996778172
C         1.10943751407504    0.96394513099401    1.90257063290266
C        -0.17721159312688    3.47226948413070    8.03413822541013
C         0.56873121625429    4.62778183508614    8.24612662822818
C         0.38578059102132    5.39713407938724    9.37773751917013
C        -0.53906743363407    5.01061008978472   10.33263370048179
C        -1.28031714082692    3.85903853866422   10.13630494288312
C        -1.10690434429711    3.09595772591251    8.99534650779993
C         1.87308485708524    2.01639292114083    7.09319536249775
C         2.91600594794901    2.83041140918360    6.66951402956821
C         4.21593801126848    2.60450741768319    7.07762940106216
C         4.48697607019019    1.55257849603990    7.93599693962936
C         3.45365232308861    0.74292203142062    8.37729853296495
C         2.15375709959391    0.97013304799005    7.96215764667949
C        -0.59121360518393    6.58792570191162    5.37777018608666
C         0.79009706794859    6.50035748955646    5.50665610029920
C         1.55136946657009    7.60344501526471    5.83793052412357
C         0.92607296102704    8.82583878338344    6.02320404588415
C        -0.44613321513984    8.93316833637512    5.86608910347063
C        -1.20613879500066    7.82128571023619    5.54847135559521
C        -2.46246085959407    4.72210110057869    6.47512400619874
C        -2.60477135181460    5.60591166691893    7.53495936489262
C        -3.51367566467750    5.33048812856160    8.54140735055309
C        -4.28019520169486    4.17849622761941    8.49702650588605
C        -4.13105584160874    3.28826233989989    7.44572058184978
C        -3.22794916157940    3.55993327299925    6.43579472608979
C        -0.23510247662346    6.10738100346092    1.85429115922073
C         0.52133149814117    7.10304765816971    2.46399317523709
C         0.19804946924095    8.43758037316182    2.31162060224350
C        -0.88923641434410    8.80033820122194    1.53520965371040
C        -1.63802786701317    7.82014069654621    0.90643927212938
C        -1.31605486577294    6.48279879677830    1.06325600517592
C        -0.67742696957472    3.54443444777173    0.79663219890029
C        -2.01332137721678    3.27104547817068    1.08409585931296
C        -2.81861203820246    2.63317018318907    0.16056971586167
C        -2.29853571210442    2.25775812808306   -1.06671947987176
C        -0.97219552201608    2.52456787043028   -1.36086989172547
C        -0.16221146353015    3.16127753581139   -0.43687355196851
C         1.70853412962464    0.06879036806217    4.43563702244767
C         0.64208765152128   -0.82527494686764    4.34606540963294
C         0.70403784621564   -2.05189759271818    4.98191529819236
C         1.82704988702622   -2.39965685409268    5.71535836493199
C         2.88209585464207   -1.50963467129466    5.81905590253980
C         2.82334029854446   -0.27928453058783    5.18889676776476
C         3.32824982822318    2.05124960993262    3.27721602947517
C         3.78109071085848    3.32925262721144    3.57224921554115
C         5.10820625817436    3.67325471650827    3.39623452913074
C         5.99984665094827    2.73114408424577    2.91288665673832
C         5.55555121112198    1.45610725016198    2.59916529384488
C         4.22791205506947    1.11530266492502    2.77909017600747
H        -0.44789453164011    0.21123338883744    6.11835923562097
H        -1.82717086678166    1.19165069382939    6.60744082329076
H        -0.67428822958027    0.60873354774873    7.84472758497743
H         1.30858796951642    4.92685212168036    7.51898706675541
H         0.96942644406063    6.29628983272623    9.51696060746826
H        -0.68137475201583    5.60414966487913   11.22395691458225
H        -2.00412010160716    3.55031523710242   10.87697336387843
H        -1.71852141927482    2.21893555437902    8.85752907463294
H         2.69453343362405    3.65118745111608    5.99936225006882
H         5.01546677689925    3.24071420483806    6.72452150996091
H         5.50033166563624    1.36372523819062    8.25965329849600
H         3.66253302125947   -0.07635127144497    9.05046230201926
H         1.36815892438468    0.31951834711054    8.31342389669065
H        -2.51978994696088    5.98698529128727    3.02102719210045
H        -3.48577661813522    6.23667252991652    4.50178341936697
H        -3.43924499296956    4.63942034704842    3.73653782952862
H         1.25971785779960    5.53239481580481    5.31446693277727
H         2.62429632602933    7.52067448065527    5.94589518422767
H         1.51013958415398    9.69739675011140    6.28141169404641
H        -0.92795319539958    9.89188360439548    5.99555260221300
H        -2.27554902106165    7.91829897163460    5.43187527900558
H        -2.00381766746166    6.50283484925993    7.58455169957046
H        -3.62548396303717    6.02327800025679    9.36341142953809
H        -4.99259230572813    3.97429978643106    9.28346929620696
H        -4.72564974949854    2.38633034281382    7.41045706176574
H        -3.10413481917983    2.87994688692602    5.60070548647746
H         2.43503169313232    3.61890079430875    1.19085626152485
H         2.55050996151574    5.20904155978338    1.94410025938498
H         1.79325174577905    5.06563024350227    0.35642144765797
H         1.37647057666487    6.83096957438741    3.06571150626344
H         0.79578249389643    9.19427807088480    2.79927844968889
H        -1.14727173964988    9.84215922043487    1.41436050400186
H        -2.48024384749318    8.09646710256646    0.28816016263642
H        -1.90740238596731    5.72850088509139    0.56374039335994
H        -2.40205624301969    3.54468078421930    2.05265336983751
H        -3.84914904138151    2.42096708516028    0.40300900131832
H        -2.92187316449263    1.75498557119167   -1.79184177542383
H        -0.56150138285162    2.23268964955812   -2.31736657674922
H         0.86930109647199    3.35127386987162   -0.69436928890989
H         1.39885193721659    1.65347165534548    1.11288823940472
H         0.02509830691982    0.84952844792506    1.87928763729591
H         1.58837076176394   -0.00186405114711    1.74564051095615
H        -0.24139976858434   -0.54479226762815    3.78897902956840
H        -0.12706498047108   -2.73810684045997    4.90435275215935
H         1.87898561052928   -3.36106547636276    6.20572471111828
H         3.75915828924226   -1.77176662918490    6.39354727626110
H         3.65416939345447    0.40613703783300    5.27971185049933
H         3.06635136810422    4.06307046116183    3.92992969965565
H         5.44942188815169    4.67144551173521    3.63331450852190
H         7.03985520182694    2.98966985451591    2.77647941213657
H         6.25072717420467    0.72354548138033    2.21461795712822
H         3.88919892125079    0.11632855138757    2.54289575011256

