77
CSD_code = GIKGIT | q = 0 | S = 0 | Stoichiometry = C32H32Cl2F6N2O2Ru | MND = 5
Ru       -0.01438239372605    4.08301031056319    3.85651301810313
Cl       -1.03270627908545    5.67513086281740    2.53155990452416
Cl        1.61975661215217    3.29233790663946    5.26304127141417
F         6.11785606976560    2.02580570544089    3.62356286160034
F         5.49883983273753    0.40558785486646    2.36708145861994
F         4.11872526814953    1.25987506889820    3.76817281997850
F         5.73517352370966    1.65897573795117   -0.06379767555239
F         5.35115870142511    3.76704589667595   -0.05210524962513
F         6.88099306761387    2.94868325580567    1.21362182582864
O         3.49380652821067    1.84158678928634    1.26587502991378
O        -0.96728490861797    5.15346193925743    5.66763196181310
N         1.94512249246254    3.52111755354057    1.81114864220552
N         0.31075023820272    2.13223877293119    1.52863053084857
C         0.73357779308115    3.11944190612964    2.30409835782459
C         2.89629107964178    4.30590379888049    2.45872219980289
C         2.55561118076021    5.52011288177586    3.04349844123787
H         1.52452071453380    5.86213341960570    2.97464085365720
C         3.53352155953838    6.29923027594560    3.62694627125785
H         3.26717034072618    7.24572857336692    4.07365224855325
C         4.86475732605878    5.89410362132990    3.62808797239093
C         5.91908696179614    6.73495072512060    4.27491927889306
H         5.66742327481151    7.79053059601209    4.20880148261617
H         6.88721473874681    6.56858438472862    3.81045584211041
H         6.00143601450811    6.47204150916274    5.32958781767757
C         5.20137502684834    4.68568439870369    3.03344321415444
H         6.23375984873572    4.37374443537188    3.03786480595195
C         4.22795020100093    3.88188885668478    2.45452426346065
C         4.57710204474843    2.54137726156136    1.83661774460984
C         5.65740795488808    2.72208061694939    0.73400853442185
C         5.09107931569671    1.55428196353129    2.91384317854050
C         2.44482041055665    2.66080645448462    0.76953123515919
H         2.81088205716047    3.25460119037687   -0.08086182238578
C         1.23713716030481    1.78991477794431    0.45550709909550
H         0.80264176334510    2.02680141314171   -0.51862439019643
H         1.50509562594527    0.73155229524460    0.48490329296788
C        -0.81984167748875    1.28899174006361    1.70164893407597
C        -0.68663322504262    0.15564878372678    2.50855854944323
C         0.57324503346774   -0.07613963781654    3.28162255986342
H         0.47388803650785   -0.94629250008191    3.92388193113560
H         0.78772505601597    0.79483132311750    3.90443975829394
H         1.42900428742122   -0.22903248713427    2.62586132604112
C        -1.77357417059310   -0.69630942657247    2.62115478089545
H        -1.69267720045204   -1.57567052146716    3.24347063046860
C        -2.97025323224314   -0.43728342337091    1.96267724993218
C        -4.12159224943260   -1.38551051621761    2.10324985054670
H        -5.01783893915253   -0.98385638809716    1.63827539817757
H        -4.32842913796239   -1.58171940483893    3.15388233202309
H        -3.88300567684205   -2.33722800514126    1.62961868970306
C        -3.07681054105212    0.70947489664313    1.19016817216947
H        -4.00994041921047    0.93143695959486    0.69323545392114
C        -2.01116920414619    1.58776101810101    1.04555457990734
C        -2.14116384610021    2.84834324914575    0.25110307370492
H        -3.17272110820206    3.00653000591969   -0.04965104538300
H        -1.52392293215189    2.81358278498996   -0.64588490666987
H        -1.81618835764869    3.69805784416760    0.85181895540508
C        -1.50792554730278    2.97823977060961    4.23586821705130
H        -1.77478092738426    2.05145653391729    3.73348780647826
C        -2.41500986702101    3.37969815144532    5.24442464186102
C        -3.60233703393362    2.67710649264901    5.51127435558004
H        -3.82007804763913    1.79695872532775    4.92409271605950
C        -4.47014283228474    3.10481351434867    6.49059977394121
H        -5.38089812942825    2.55952579226882    6.68576370457644
C        -4.17261082504649    4.24158144730968    7.22919935704463
H        -4.85227848156161    4.57991385159202    7.99660204943785
C        -3.00699337149341    4.95644206132536    6.99889462784248
H        -2.81295142986447    5.83562834097919    7.59284566375123
C        -2.12587038499148    4.53882988383128    6.01274261270090
C        -0.42700682781975    6.17517906775542    6.50710609777571
H        -1.21813680592846    6.90687315638080    6.72594277298701
C         0.12554763451682    5.55794516337158    7.78961428191470
H        -0.66158620976126    5.08043212089169    8.36856163701813
H         0.59586805705438    6.32443283530983    8.39937302108103
H         0.86649135732587    4.80335721845903    7.52984920315054
C         0.67378254587903    6.85121997126366    5.70394241504508
H         0.27337664986342    7.20819281255536    4.75472694777361
H         1.47495408429212    6.13330091468868    5.52724162599450
H         1.07611475040713    7.69760286828015    6.25415587579405

