72
CSD_code = GIKGIQ | q = 0 | S = 0 | Stoichiometry = C37H29CrNO4 | MND = 8
Cr       15.33981426469809    0.10373581035273    4.69653011065383
C        15.69472961642345    1.51694989019560    3.60007954166357
O        15.95299112835740    2.49158121348124    3.02969993813973
C        15.26373186508062    1.51287292461394    5.84160534923367
O        15.23784628383391    2.46306132511927    6.50477031261955
C        17.12475990793120    0.24592576655123    5.05108629647306
O        18.23355105446856    0.45244594683405    5.31373065676512
C        13.59543253856226   -0.81661821660215    5.53550148459292
C        12.68854231373875   -0.30251572662245    6.61687202652852
N        14.74429354628847   -1.51859423583076    5.90410628338206
C        15.12415644077404   -1.79219229055893    7.27448530956547
C        16.53152912987663   -2.37674491488121    7.13167857586321
C        16.92130598710665   -3.38102146541609    8.20896530935832
C        16.53294147362105   -3.00433321187033    5.74508412301427
O        17.37346473858796   -3.73941248349276    5.30864731263213
C        15.24838708535617   -2.57876994456938    5.03984740183555
C        14.36365946153643   -3.81607394027720    4.90880942412575
C        13.05425231335398   -3.84280472720831    5.37306921557451
C        12.26362202870041   -4.96236604502150    5.17696896690659
C        12.77056634478046   -6.06985537476593    4.52204935566145
C        14.07986159181660   -6.05521372663727    4.07091231387204
C        14.87228972982166   -4.93894786504841    4.26197123606881
C        15.42198733281283   -1.89921799227750    3.68029813183041
C        16.37071629185426   -2.50909959190330    2.72192105724537
C        15.90333472756786   -3.36021737752503    1.72158702611585
C        16.78290530467211   -3.94229120699453    0.82893238513773
C        18.14078561784774   -3.68976638061642    0.92509520533467
C        18.61365214901265   -2.84701820038983    1.91615123417888
C        17.73598816594093   -2.25843822967793    2.80774214935517
C        14.30937715221745   -1.18369874641787    3.23675344655226
C        14.12733892686113   -0.92322401257993    1.79210844535287
C        12.97021340784241   -1.35873755085357    1.15186752248522
C        12.79885873630601   -1.14801068117106   -0.20363262721055
C        13.78128864931486   -0.50637871325333   -0.93744675411083
C        14.94168393547280   -0.08445172870529   -0.31001225006197
C        15.11783717209665   -0.29311205281508    1.04475097991979
C        13.31455996810718   -0.72407268005617    4.17621944487619
C        12.08400483774292   -0.06496045728622    3.68811696913368
C        10.83855677274866   -0.64218271072257    3.92302663669311
C         9.68772024670052   -0.04171036939444    3.44581473909061
C         9.76794857031505    1.13891097378011    2.72752401921087
C        11.00366549232215    1.71925056652205    2.49119352189922
C        12.15623699550942    1.12446937913942    2.96835288039627
H        13.22788912612278    0.35513386266055    7.29838836663585
H        11.87054692526690    0.26525245404572    6.17952082836673
H        12.26631778168376   -1.11905500652493    7.20773060611812
H        14.45560854941994   -2.53347524415762    7.73958083461091
H        15.11635871713369   -0.87916373727440    7.87145119547265
H        17.26995102959769   -1.56713592231726    7.10754374741794
H        16.97773469007216   -2.89608717362250    9.18018046380972
H        17.89136094771001   -3.80988423164449    7.97239751535977
H        16.19341373732647   -4.18892722748371    8.26017903813440
H        12.63060702479465   -2.99762108966997    5.89330664162178
H        11.24651291193073   -4.96534644886525    5.54158776590500
H        12.15090862176797   -6.94071293598458    4.36995798291648
H        14.48974896980739   -6.91767866178937    3.56747706104614
H        15.89512040224489   -4.94054136942267    3.92030842743925
H        14.84528197878190   -3.56907020330329    1.64779302563408
H        16.40540606308921   -4.59880129732193    0.05859572403514
H        18.82720720916550   -4.14811143119770    0.22868603684353
H        19.67092881414499   -2.64332664021730    1.99492843604631
H        18.10670578091674   -1.58529939756228    3.56638079914595
H        12.20566476377847   -1.87601564485161    1.71462980850517
H        11.89474887845501   -1.48872343452942   -0.68668695795310
H        13.64423007749549   -0.33896932819262   -1.99534508225503
H        15.71384360467891    0.41243997065221   -0.87761053423564
H        16.02064548072566    0.04275317532659    1.53457357081413
H        10.77413639056519   -1.57369762715485    4.46984066581914
H         8.72711520502751   -0.49947236832673    3.63234270726766
H         8.86898562228025    1.60585906610813    2.35398281079261
H        11.07008750374826    2.64209234495246    1.93516467832044
H        13.12094389429219    1.58183460252366    2.79687912840725

