16
CSD_code = GIKJOB | q = -1 | S = 0 | Stoichiometry = C2H6Cl5OPtS(1-) | MND = 6
Pt        6.70661598120185   11.52683446680195   10.40397998532665
Cl        6.87682244450436   13.61786615120000    9.33853047214214
Cl        8.30868873226392   10.61578938924609    8.89441088770757
Cl        4.90576466281663   10.91199820096415    9.09890570689918
Cl        6.65139711993336    9.49394311794151   11.58659740533681
S         8.67906707721909   12.10934460637694   11.66410341096532
Cl        5.28088377054199   12.46687982619355   11.98837040220261
O         8.59365394431969   12.81426301538743   12.92964175026231
C         9.84864891893041   13.04115478675932   10.62537489966172
H         9.37215170223652   13.98128279298162   10.36849724584996
H        10.02220675265596   12.45442061243573    9.73093195649908
H        10.75402194806272   13.20627767343982   11.19746779395534
C         9.70639094433047   10.63456346714737   11.95503646009970
H         9.14362430209677    9.97437317860516   12.60633239158411
H        10.63117280269473   10.94962035335248   12.42378450076283
H         9.86768889619106   10.16128836116562   10.99353473074495

