101
CSD_code = GIKNUK | q = 0 | S = 0 | Stoichiometry = C46H39F6N5O4Ru | MND = 6
Ru        6.29346412879470    8.91514060755804   23.46870804509709
N         5.58736069122204    6.37374890101806   21.87652461755847
N         6.77741864320989    7.69156453929530   20.69053518447530
N         4.50082608316927    7.60802355157272   25.56620829128858
N         6.58483330503580   11.07205292029343   25.64569389200096
N         8.19913104384689   11.05709913558491   22.43202125722798
O         4.56381335194091    9.92648134500944   22.55564345900271
O         5.34815406966729   11.98038224308941   22.97166648300738
O         8.01133902237464    7.77752634937726   24.24335068663640
O         7.43769624405260    8.13618833688319   26.37607455401827
F         2.47077121056485   10.79252741781152   21.32144324010494
F         3.63941570906209   12.50129971849005   20.73196663949878
F         2.53674917094684   12.53664699111176   22.58424483051948
F        10.06614787131440    7.33113008741375   26.91089492973873
F        10.22531538511078    6.59424035829136   24.89381702558236
F         8.96626106695269    5.57716489858705   26.31305606377068
C         6.21439692707819    7.56626343962594   21.90919419217803
C         5.75532861483166    5.76380605670967   20.66166259593513
H         5.33042040398648    4.80568773129316   20.44200642990597
C         6.50704555244005    6.59881145394803   19.91037003310202
H         6.86901958053934    6.51247324073392   18.90624064201792
C         4.84652686223972    5.76855208394670   22.92727753894293
C         3.47639063043932    6.01298248087451   23.02028089341941
C         2.76172822495229    5.35569142879260   24.01084765092083
H         1.69847552225421    5.52878427880358   24.09384494714383
C         3.38250947544214    4.48892174262202   24.89876086952568
C         4.75061698200411    4.27622634334240   24.78612190634992
H         5.24163880940625    3.60995452114537   25.48020400694742
C         5.49997761123060    4.89824453817195   23.80074874200884
C         7.55202915348056    8.78480848301309   20.21752132344681
C         6.91571628169096    9.82057196185817   19.53187753549901
C         7.69445399551405   10.85872190576070   19.04678096542947
H         7.21747911882023   11.67823233102098   18.52940342578709
C         9.07393213702098   10.86774719061314   19.21005994577305
C         9.67808517691525    9.81435067709679   19.88112838501824
H        10.75076292390913    9.81269395133053   20.01047263424322
C         8.93496224683773    8.76498601494216   20.40104982560726
C         4.54574491390709   11.17880047963940   22.53549472110858
C         3.28016562472846   11.75357263884880   21.79098823675643
C         8.13046154567809    7.68289579147967   25.48844334162174
C         9.36654057107692    6.79634802801560   25.90390331713665
C         5.11783176895574    7.94950379928758   24.63569579058117
C         3.89325050978757    7.13933967976731   26.68229929003896
C         2.51206739028429    7.24919435824045   26.82329191050350
H         1.93284796733566    7.71426852593501   26.04027930845766
C         1.91022271634578    6.76336269007718   27.96800690738598
H         0.83989560391953    6.84548527324221   28.08575457154015
C         2.67359739582777    6.17480650994207   28.96408958952407
H         2.19626709818739    5.79575985147687   29.85524550394064
C         4.04960315223506    6.07817675608018   28.82076467612730
H         4.64364502045833    5.62765501863608   29.60181012099419
C         4.66950923141527    6.55899300513120   27.68394175140724
H         5.73987990707764    6.51261516823205   27.55715110167834
C         6.41654936424613   10.22117579051322   24.86865241642685
C         6.76473437939036   12.14215363105912   26.45879117932857
C         7.10148333325406   11.94927530800032   27.79588704360370
H         7.21393214535609   10.94425079043937   28.17316607901770
C         7.28774053868499   13.05426097734807   28.60486530320904
H         7.54895478717692   12.91818024101105   29.64365034151526
C         7.14081156669921   14.33245278827794   28.08831495477706
H         7.28746713149288   15.19040310379590   28.72732583735340
C         6.80517874916405   14.51370894818599   26.75487473648070
H         6.69051920852833   15.51103607505084   26.35742714248451
C         6.61453052505844   13.42282693219537   25.92930365002907
H         6.34537179164037   13.53042709956246   24.88954571674711
C         7.50048664108774   10.13975862880469   22.62159686466008
C         8.86511836803464   12.20456295496917   22.15861578357402
C         8.13660802503792   13.34849090096475   21.83587039718553
H         7.05898924287252   13.29528609192120   21.82439834778571
C         8.81358553210704   14.51968958315308   21.55746951717838
H         8.25708330277369   15.41042167850523   21.30667619083759
C        10.19930575579845   14.55661670653882   21.60061003441782
H        10.72142937490458   15.47553972940340   21.38004786307125
C        10.91541882486975   13.41708668886596   21.93208836624640
H        11.99403473115285   13.45039225031139   21.97264071681943
C        10.25613813969387   12.23597237394786   22.21372079551606
H        10.79862965488430   11.34123167729809   22.47831919295893
C         2.82136349064824    6.98619437195575   22.09126078513919
H         3.25402851509118    7.97956065504590   22.22968611856218
H         1.75364839123347    7.04438411808133   22.28239419082366
H         2.97288515340636    6.69866137503886   21.05103588942832
C         2.60060978791738    3.77997113854317   25.96107419830473
H         2.53491565207350    2.71687977458024   25.73026209063565
H         1.59292588071270    4.17934910079875   26.03735456813622
H         3.09140967388348    3.88286273993313   26.92693935822891
C         6.97056789825869    4.65541050145050   23.66214165160360
H         7.18122587372918    4.07910632464319   22.76027447062119
H         7.35232036102027    4.10788028650820   24.51917148295246
H         7.50480172774163    5.60267640529532   23.58492233856614
C         5.43276583761484    9.79345653389903   19.32759352785231
H         5.16448109186774    9.04685647044502   18.57873874081116
H         5.07443213208618   10.76208061363168   18.99018981975953
H         4.92286989684610    9.53294145989770   20.25485948213381
C         9.88369744002657   12.00113248389269   18.66022105166279
H        10.92245850203410   11.92642042424236   18.97031071548660
H         9.48466801045801   12.95346134814607   19.00507791953773
H         9.84497294196217   11.99694065643985   17.57131326740370
C         9.57534759989865    7.65473501868433   21.17339848204227
H        10.65505991868256    7.77171566707869   21.19549454175828
H         9.33927934472620    6.68497082818727   20.73585008767180
H         9.20494011894700    7.65724392270184   22.20101292200329

