56
CSD_code = GIKPIA | q = 1 | S = 0 | Stoichiometry = C19H32CuN2S2(1+) | MND = 4
Cu        6.04295396344622    3.81708506767507    8.86127044458306
N         7.41459814384266    3.29929223831202   10.37168425631043
C         8.00115035287947    1.99970517511179    9.94632693713764
H         8.44493317296614    2.15929398899206    8.96025143375544
H         7.18667423845656    1.28366740589381    9.82778606611670
C         9.04161203057438    1.42249459933824   10.87611860640063
C        10.39132050304926    1.70167988943392   10.69196330641786
H        10.70669912252902    2.31790293036428    9.86206730493596
C        11.34428306593543    1.18148771419414   11.54952867192532
H        12.38754453331483    1.40626191933699   11.38937512168320
C        10.96147718540955    0.37129511218306   12.60476032476746
H        11.70402857014567   -0.03322972205234   13.27451724737090
C         9.62269233810905    0.07038515560678   12.78657698839588
H         9.31718625430501   -0.57371916191914   13.59688416177548
C         8.67085998905397    0.58855431039802   11.92587716019620
H         7.63217868888961    0.32592390960232   12.06603803641482
C         8.49795719471402    4.29880272143344   10.47201937433591
H         9.18752510717585    4.12483418340047    9.64369707115271
H         9.05345136250035    4.12851347371736   11.40299365561880
C         8.06727947400315    5.76719309618321   10.41895836400143
H         7.16386972356704    5.93672693603470   11.00647455001050
H         8.86567823493243    6.34877145213100   10.88325290296037
C         7.84684194065361    6.31438665337721    9.01058459602414
H         8.47079954022683    5.80208047384379    8.27941015970233
H         8.06366978640594    7.38232746105571    8.98030689987742
S         6.09343676155311    6.13011197396130    8.51059244625548
C         6.20220943514350    6.40327687499385    6.70813641793395
H         5.20914305256573    6.75044570133327    6.42495723247253
H         6.91030304318601    7.21782173403578    6.55895046683857
C         6.59623883179835    5.18417354078738    5.88638720390342
H         6.72577174514343    5.52379619573057    4.85680407377443
H         7.56408814166045    4.80498160275948    6.22492157742950
C         5.56586564016477    4.04938492058261    5.90779943677544
H         4.58051998052295    4.45128164748355    6.15225913641129
H         5.50864327979795    3.59074860476637    4.91140723542379
N         5.90649112526518    3.01870205045977    6.90059095915607
H         6.86185528297613    2.72307591788054    6.70062850110415
C         5.06827610747442    1.81449583439865    6.78744025156782
H         5.58663988194931    0.99957783849006    7.29955077026872
H         4.97229539362087    1.53738398970432    5.72870034092941
C         3.66101407838434    1.94849605942366    7.37418547299623
H         3.06328009277160    1.13469891074222    6.95944821503894
H         3.20157418982724    2.88409838812382    7.05427518463603
C         3.58849017763472    1.84972930039653    8.89413170192088
H         4.31394391311985    1.13252370031176    9.27543372587396
H         2.58797638284870    1.54715505285601    9.20359870829890
S         3.90013731221982    3.47919543465933    9.67529437074367
C         4.17653847217800    3.00724631847077   11.41616791323493
H         4.09885744076960    3.94778528732080   11.96128955326105
H         3.33506204003646    2.37370864082190   11.69808742562205
C         5.49160181534554    2.30552833351913   11.72571844675913
H         5.40307219748845    1.92140855186214   12.74503256008385
H         5.60437136110932    1.44037172873157   11.07249692224239
C         6.74376936027987    3.18922280040335   11.68328735138380
H         6.46301209060634    4.19650176368891   11.99661637894264
H         7.46875685547615    2.80475431764888   12.41268637684756

