24
CSD_code = GIKVOM | q = 0 | S = 0 | Stoichiometry = C10H9Br2NPdS | MND = 5
Pd        2.37453952722400   16.39805916792821    8.49329595287843
Br        2.07878521978795   15.39681477827144   10.60595946320519
Br        3.68961872443526   18.14731742817510    9.42907800828030
S         0.29445336734385   13.73147451317304    8.21599493093959
N         1.68900595717434   14.66669119058655    6.32539809089181
C         1.42445470908590   14.87389017911786    7.61975970925565
C         1.03677718914397   13.60185628850461    5.73767198123042
C         1.13777194458109   13.14489404300748    4.42798651114386
H         1.79635276869002   13.62409773310528    3.72102440394219
C         0.37569304956797   12.05481111425516    4.05814733263342
H         0.44014056848986   11.68504557336357    3.04668025035284
C        -0.47120696298684   11.42251896788619    4.96553309148034
H        -1.05391540397494   10.57356902516576    4.64470106318942
C        -0.57182992671448   11.86402284284817    6.27017911657177
H        -1.21932936471273   11.37860636065998    6.98206796261204
C         0.19002343633049   12.95771935572057    6.64936087994688
C         2.66375636096263   15.50123576223515    5.64049804010835
H         2.26978787685433   15.75949196411602    4.64916707731390
H         3.58954684534726   14.92748970168440    5.50505300268560
C         2.93333826915670   16.77011953808772    6.42844516439511
C         1.90520910060036   17.63006231629316    6.75556407043332
H         3.96087788703939   17.13322491597827    6.40885001502231
H         2.12161636230438   18.66221398472035    7.01318833299950
H         0.88643249426821   17.42277325511791    6.43079554848422

