38
CSD_code = GIKVUS | q = 0 | S = 0 | Stoichiometry = C17H14Br2N2PdS2 | MND = 4
Pd        4.17918875795404    2.41006157754750    9.30328581028603
Br        6.09363547265289    0.99601659605953    9.81963213877996
Br        2.17045270681427    3.72299958137988    8.93052289195080
S         3.85482581490895    1.07641193815972    6.34973347291549
S         5.67534409573307    5.44599743820367   12.42804866829679
N         2.80127186843578    0.05104949449887    8.40676538071443
N         4.89363856235398    3.84744330546416   10.57953621321143
C         3.54912872693085    1.08838302069302    8.04485472985033
C         2.41608137603640   -0.79916573787813    7.38799126276558
C         1.63127537896430   -1.94281623774672    7.47497101011245
H         1.22511537435768   -2.26354393920975    8.41991394143955
C         1.37578981401648   -2.64907144017154    6.31626856208261
H         0.76794661260560   -3.53908258563173    6.36473292130179
C         1.88432142398873   -2.23485907561762    5.08834117682702
H         1.66652642213414   -2.80791104887708    4.20083333484103
C         2.66246168762543   -1.09771527589124    4.98987504349875
H         3.06001128230437   -0.76528140364142    4.04472645645947
C         2.92091262203278   -0.38721458842245    6.14935382452959
C         2.38487284450854   -0.15161746136474    9.78729430485370
H         2.61442984377173   -1.18070153222244   10.07982551529741
H         2.98375244734961    0.54127533303489   10.42360046130807
C         0.92714649796192    0.16110116188395    9.96240074791822
H         0.61453790835447    1.11266071968236    9.55179240043063
C         0.07786051691745   -0.62803389936574   10.59108663370983
H         0.38163292878021   -1.57090135355904   11.01843991098117
H        -0.95444525020422   -0.35585099851686   10.72082444135168
C         4.77373791015672    4.09441494602885   11.83696630744857
H         4.15819498567650    3.51697328256363   12.50524659232545
C         5.73328704924455    4.73298956731221    9.95332542259752
C         6.05837908438573    4.72572841680122    8.59445789953298
H         5.62741216198669    3.96770482876122    7.92432273467784
C         6.92628509059303    5.68867560906950    8.12983435714487
H         7.19616457790837    5.70516254442315    7.08529500476016
C         7.46561457827178    6.64617301253701    8.99067987719240
H         8.14437043878962    7.38647434026570    8.59625602934767
C         7.15008373385508    6.66817941262079   10.33440852613966
H         7.56627605375110    7.40969305816183   10.99732163883605
C         6.27717859808472    5.70369739297819   10.81323435427309

