126
CSD_code = GIKXUU | q = 0 | S = 0 | Stoichiometry = C60H52BrN5O3P4W | MND = 6
W        12.11829656054310    2.90825643716678    4.36860196163716
Br       10.31004654699035    1.82128223978000    5.78442805756263
P        11.84854781438221    1.27788552134643    2.57140155524358
P        10.44006001694217    4.53388819494480    3.63928712130310
P        12.24900421393106    4.48380719706802    6.22458092268816
P        13.72681922388085    1.25474080228280    5.15707536359685
C        10.38273085867278    0.27179680748304    2.14543405340428
C        10.49948562756327   -0.73955641899762    1.19195108272961
H        11.45240302843395   -0.92863912408650    0.71791610011227
C         9.39630590944928   -1.48856925862160    0.83491634964770
H         9.49518469858425   -2.27050989030902    0.09601878620257
C         8.16328725580071   -1.23566608295165    1.41799023583876
H         7.30316514835340   -1.82450215256493    1.13571014771641
C         8.03924755398268   -0.22685165063517    2.35540179019628
H         7.08367688925869   -0.01845594035664    2.81215891561856
C         9.14369855462134    0.52635841732954    2.71663708814699
H         9.03109012148822    1.30871555854419    3.44992414125943
C        12.27266562133197    1.90003352772138    0.91246608009903
C        11.26066534267155    2.19444804225279    0.00147577016033
H        10.23371285882376    1.96534195373591    0.25181535166641
C        11.56505153288521    2.77095855124070   -1.21728736484221
H        10.77346371481642    2.99197959545919   -1.91848764262850
C        12.87951734819238    3.07126094018319   -1.53645995150118
H        13.11426815009919    3.52774868999334   -2.48656943056706
C        13.89071258129812    2.78982404021746   -0.63283819475421
H        14.91564482854158    3.03330774563758   -0.86953278953448
C        13.59060239581117    2.20844912954927    0.58572016849007
H        14.38615919309705    2.01239629610625    1.28844637897347
C         8.73260212985226    4.00471640963991    3.27670328953513
C         7.80948401642690    3.76015499312539    4.28827503838858
H         8.06791472735123    3.94152622711241    5.32105387833987
C         6.55706613098256    3.26121970592066    3.97818362761992
H         5.84786219490602    3.07167749620641    4.76993269593547
C         6.21771455385377    2.99757274927481    2.66209589418059
H         5.23949515868061    2.60744005074626    2.42321795889035
C         7.13576392264494    3.23213350735613    1.65079488093506
H         6.87486897884766    3.02502407252165    0.62313488176131
C         8.38844424802324    3.72811408753715    1.95554806930248
H         9.10958587101478    3.91209454603879    1.17004981435384
C        10.72569205949467    5.62256498900251    2.20742714967018
C        11.70511350161222    5.30136832735536    1.27893309448238
H        12.27207221290738    4.39117325244404    1.40428340954306
C        11.96443511510694    6.14394451799000    0.21198968105248
H        12.74367118415538    5.89068573831673   -0.49190719915996
C        11.23777795089139    7.31213043639268    0.06343656828054
H        11.45011058723351    7.98121466178682   -0.75688307716697
C        10.23300206638055    7.62188038584449    0.96714903355551
H         9.65669976799180    8.52695311178689    0.84438528249569
C         9.97163166459143    6.78082064686221    2.03196027943948
H         9.18130274192547    7.02489343803347    2.72807126889800
C        13.41676387999181    5.86229535765285    6.00315280882836
C        13.10976395344902    7.20851173046967    6.16638823472071
H        12.12618660242542    7.52159521637507    6.48414425390078
C        14.07012935825488    8.17352270246712    5.91650499166051
H        13.81658380798545    9.21828213181035    6.02323711354637
C        15.34632256848407    7.80972310292904    5.52084927196031
H        16.08400793345580    8.56915150919067    5.30965988723308
C        15.67001809572424    6.46941709589597    5.38730737634856
H        16.66169273719307    6.17540322815753    5.07643806623261
C        14.70766168796733    5.50535836378131    5.62062707462957
H        14.94556634448693    4.45758172299906    5.48832100214014
C        12.56119285940438    4.00906926503726    7.96198731645974
C        11.53964500314674    3.50668830861863    8.76694441274039
H        10.52708442522322    3.44537094024611    8.39902367907480
C        11.81854135703554    3.04825314950443   10.04201195299858
H        11.01655597030034    2.66461626788146   10.65510009660920
C        13.11564797292117    3.07124510041681   10.52591555681657
H        13.33053006640420    2.70880022016775   11.52014267177438
C        14.13766667233383    3.55706627178567    9.72702346483493
H        15.15312118793489    3.57516549401070   10.09450003216550
C        13.86546038997131    4.02002482819372    8.45341040723068
H        14.67105201724139    4.39669198128233    7.83919073000689
C        15.35128719206835    1.74921731121213    5.83436172836368
C        15.73469600444925    1.47829944011889    7.14421188156585
H        15.08697922685498    0.90738557352591    7.79349540908139
C        16.95124531863359    1.93175430445616    7.62325794851416
H        17.23775534599826    1.70990034235637    8.64092773054137
C        17.79782586093223    2.66223388565951    6.80705168845999
H        18.74587628268080    3.01456367228633    7.18523574270972
C        17.42157583277586    2.94148811602886    5.50338768676977
H        18.07167022638605    3.51433887348663    4.85882436548570
C        16.20529123876704    2.49487075371521    5.02043229506138
H        15.91747729987130    2.74758049583517    4.00902733053348
C        13.22551984768458   -0.06279745441662    6.31142707638281
C        12.71689385375630    0.37038240671239    7.53536490269852
H        12.64585347997922    1.43155236710037    7.73273486985677
C        12.29967263707798   -0.53683244720186    8.48858242856179
H        11.90766183515638   -0.18162971849039    9.42961375510647
C        12.37694650719823   -1.89467290285695    8.22628750172739
H        12.04456199794494   -2.60967517689586    8.96383611561699
C        12.87720890536231   -2.33384191913529    7.01277644551175
H        12.93714712332283   -3.39230343953497    6.80451548059513
C        13.30174935377755   -1.42669070369479    6.05704773531391
H        13.69189522668425   -1.79985937727112    5.12209518559755
C        13.09452330680973   -0.10298525988990    2.80584776465037
H        12.54920671451390   -0.90463699945043    3.31929579597880
H        13.42866870937548   -0.47663089106632    1.83271991094181
C        14.28617624306189    0.34174945115541    3.64366423002734
H        14.89969282029024    1.05113659547193    3.08038638259128
H        14.92695945638879   -0.50236365167395    3.92101959197316
C        10.18559489624172    5.82644180182765    4.97181811221072
H        10.83235118173188    6.66505209461841    4.69317593786783
H         9.14624942377748    6.17034246577785    4.97800116194347
C        10.59362216445844    5.30764627577543    6.34557486900542
H         9.88232749418015    4.54661995951217    6.68262981349321
H        10.61143477072993    6.10586880071501    7.09531945089888
N        13.42537882090296    3.70084693210592    3.45505717672779
N        14.40817346949938    4.17477673421446    2.85322340332274
C        14.59526721719848    5.44524695981031    2.58251052394494
N        15.64494295553077    5.95445029380018    1.96361472692716
N        15.44838637771698    7.26087078851685    1.88801907592229
C        14.30217983307448    7.54456276711784    2.44745235511315
O        13.68841735254788    6.42069951537634    2.92568097545539
C        13.70360307582467    8.83385371853102    2.56352627784684
C        14.37743494106905    9.96561057900425    2.08022873264272
H        15.34673504982850    9.83107460920430    1.62859122852503
C        13.80122080159039   11.20700632934772    2.18666963949924
H        14.29839414003038   12.09338504596487    1.82345197758707
C        12.54115348537131   11.33742523128899    2.77650422151737
C        11.86186299185673   10.21845481322001    3.26029770181297
H        10.88926965139529   10.35246765446637    3.70895479200560
C        12.44152156625457    8.97922612967710    3.15527865230466
H        11.93484998819025    8.09897557156186    3.51635108931616
N        11.93942986736380   12.62318569084360    2.88504302916280
O        12.55480963964551   13.58428602393650    2.45521472348144
O        10.83695173625985   12.69612305859135    3.40468340880581

