64
CSD_code = GIKXOQ | q = 0 | S = 0 | Stoichiometry = C30H25Cl3F2N2PRe | MND = 6
Re        4.03916125775714   10.73706694436755    8.25166291380543
N         4.63981602476134    9.72931335889049    6.94930007060842
F         6.53020105010908    6.50011915248147    3.00990391731172
C         5.11272839973872    8.93738454818727    5.99297982988465
C         6.19123755724356    9.35308461917365    5.18608778962127
H         6.62020400414060   10.32493732733334    5.37064786876492
C         6.66964771947312    8.53180121381719    4.19129962376318
H         7.49668076428278    8.82949031168847    3.56618123664506
C         6.07279827444130    7.29573912042188    3.99361792139784
C         5.01178228242279    6.85649269476585    4.77177298942846
H         4.58065408517030    5.88551446446579    4.58506456927812
C         4.53236928353779    7.67255065452573    5.76992462760664
H         3.71370174914992    7.37013013379904    6.40333378356748
P         2.16460505449288   11.45804909903585    6.91151207323393
C         2.05435949529656   13.23755764521630    6.57115359845289
C         2.49155014666422   14.17502213987502    7.50017166901434
H         2.94488469963050   13.84859038397046    8.42421335066577
C         2.36439207270052   15.52591234382989    7.23190348446328
H         2.71533954223104   16.25053908950308    7.95120475603841
C         1.79568499591805   15.94684656107804    6.04145440317465
H         1.70190324614618   17.00181857710837    5.83091055127556
C         1.34905195956936   15.01486010628044    5.11789737191723
H         0.90363001842738   15.34224475054240    4.19004132018524
C         1.47600783631261   13.66299437741609    5.37734082410577
H         1.13146710859148   12.93434461224226    4.65682838177631
C         0.55306442115532   11.01482735206866    7.60680324543292
C        -0.39221204996765   11.98204330476436    7.93282309852109
H        -0.18551694128812   13.02671082271326    7.74674564993267
C        -1.59555033605876   11.60076059304567    8.50001909510433
H        -2.32795540993045   12.35225969412419    8.75586118751626
C        -1.85668475147262   10.26328484693646    8.74856711278726
H        -2.79395256555647    9.97303148776577    9.19968558371539
C        -0.91235619642394    9.29903577770879    8.43127462308537
H        -1.10933415102207    8.25800876842509    8.63820016607568
C         0.29229928916484    9.66956929639925    7.86439557395491
H         1.05084100803620    8.93073116857931    7.64781642255964
C         2.27244932605236   10.71186957513394    5.26069563369242
C         1.34683746284860    9.81393981049515    4.74699808485471
H         0.46483864104176    9.55648435342508    5.31500417332168
C         1.55911594977301    9.25289479739044    3.49817501095518
H         0.84170867182696    8.55118276218232    3.09942124749171
C         2.68388682055769    9.58648632792383    2.76356578655390
H         2.84569427130993    9.14069726296214    1.79369798462004
C         3.60181936870707   10.49432153414640    3.27038628189396
H         4.47604407073053   10.75824818409225    2.69505050714566
C         3.40135327871601   11.05449831789048    4.51632499714429
H         4.11339080191428   11.75316324863504    4.93583040914842
N         6.00702282910743   10.04599114860970    9.54438468230574
F         9.29058401498733    7.01289971339472    6.32641403457400
C         6.89768066216528    9.25964193578347    8.78184768394449
C         7.95553052209194    9.85781658023148    8.10441048627254
H         8.12138557574465   10.92037470397459    8.20019599570757
C         8.76683062242742    9.10201831004182    7.27951613525153
H         9.58737046346301    9.54891422006587    6.74149189874745
C         8.50803872430270    7.75021604297409    7.14370824110526
C         7.46639479150068    7.13355262119434    7.81330628819025
H         7.29218624567664    6.07789372071656    7.68127027636076
C         6.66107279844451    7.89458694623531    8.63766885972701
H         5.82249776619943    7.44398267102093    9.14689728411588
Cl        3.44491498401719   11.88792915787643    9.97140503224405
Cl        3.07487264793501    8.79630048031371    9.30655277048491
Cl        5.32012557512598   12.59439826954748    7.41689533718428
H         5.57716908917483    9.52596654335056   10.30805665100825
H         6.42298307929676   10.91686341788142    9.86792754130697

