69
CSD_code = GILGEO | q = 0 | S = 0 | Stoichiometry = C32H24N6O6Zn | MND = 6
Zn        5.22435542204251    6.52304620698639    4.13528912563019
O         6.47569110425606    7.29456964286241    5.58304546695465
O         6.52791579886179    8.37081256742946    3.75507759384810
O         7.69002137434650    9.03526933553353    5.41522644553037
N         6.91076901914814    8.26731642090974    4.91836068600330
N         6.56898358019604    5.91631304605250    2.55813389462574
N         4.04106214811088    4.52783963364257    3.42886928449634
C         6.64655290583140    6.61448851236464    1.44265884621004
C         7.34998707226006    6.16914326224853    0.32994799529786
C         7.99660940850748    4.94634051077978    0.39355507623524
C         7.93297762366336    4.22474674992318    1.57304605109946
C         7.20470906510407    4.74704362871883    2.64047329394078
C         4.28660142253486    3.88722902519371    2.23291535313458
C         4.27838778724468    4.62197863830331    1.06660435834124
C         4.66115496873811    4.03867630821893   -0.15167426309601
C         4.68797453625865    4.78120478106532   -1.35283935323837
C         5.11555162003007    4.20728733976630   -2.51634678458363
C         5.52848232861681    2.86465571627244   -2.53728548937864
C         5.50676153502703    2.11665944177115   -1.39308770628325
C         5.07475728882171    2.67914442952042   -0.17527955072110
C         5.04449572920561    1.94037387812140    1.02661977219058
C         4.65020596964948    2.51965591740482    2.19649876353629
C         3.35380606159051    4.03322795475935    4.37038751564853
H         6.13041032272583    7.56160776995877    1.44651156057733
H         7.38363099606874    6.76917897333591   -0.56482696682238
H         8.54292678557660    4.56293499689167   -0.45512977540486
H         8.43116730295675    3.27241479724714    1.67236571524397
H         3.97531051898872    5.65586444622343    1.10769460374246
H         4.36790535753530    5.81188067551363   -1.32528498639373
H         5.13716924970660    4.77986130737890   -3.43165432561214
H         5.86001731038239    2.42711779426763   -3.46735005898657
H         5.81905064623609    1.08199313907451   -1.40623070211124
H         5.34485029788582    0.90212353881217    1.00608800402840
H         4.64570760665414    1.95355251364514    3.11725698500531
H         2.81039204872394    3.08639053582452    4.28701473432758
O         3.97308278167681    7.29478678714809    2.68757640820875
O         3.92105084365640    8.37110735228960    4.51551163044223
O         2.75906824605283    9.03571548646112    2.85532655945130
N         3.53790014459158    8.26743312722578    3.35234289391342
N         3.87975631701721    5.91637544108631    5.71240501787850
N         6.40771036012927    4.52772202873236    4.84170530038772
C         3.80221320878484    6.61459477303115    6.82785311191326
C         3.09866828915955    6.16936317003698    7.94053699871008
C         2.45199461911731    4.94658710336533    7.87695303750675
C         2.51565971554693    4.22491134303886    6.69751048422494
C         3.24397585992527    4.74713094043164    5.63007661057867
C         6.16201297460812    3.88707918385744    6.03760480464254
C         6.17013000031052    4.62182847194298    7.20391988983355
C         5.78716434151357    4.03856312891813    8.42215045814671
C         5.76015337712496    4.78106717730552    9.62332762151734
C         5.33230711223186    4.20714875989733   10.78673654498067
C         4.91934315877458    2.86452548459404   10.80759425534097
C         4.94124462257002    2.11655427077104    9.66338632210196
C         5.37348013869462    2.67905555914904    8.44567002932030
C         5.40379915683312    1.94029144754453    7.24377110310628
C         5.79827132929087    2.51953939328451    6.07393658731354
C         7.09493563323206    4.03312894957102    3.90015884113715
H         4.31822186124653    7.56178429311261    6.82388793525557
H         3.06493826709491    6.76949547072670    8.83524399719331
H         1.90568534263146    4.56323115066880    8.72566662436456
H         2.01750444539022    3.27254956500504    6.59828970587100
H         6.47322272155373    5.65570827144891    7.16282266939181
H         6.08040188643846    5.81169171101801    9.59590440438371
H         5.31070908410692    4.77964907957931   11.70209150056984
H         4.58764914371448    2.42696630308995   11.73759087217916
H         4.62888511359495    1.08190880873554    9.67641177872009
H         5.10332962571455    0.90207472452527    7.26429986735220
H         5.80278490474137    1.95344223677571    5.15317511020979
H         7.63829315943496    3.08624556962824    3.98340986078533

