30
CSD_code = GILGUD | q = 0 | S = 0 | Stoichiometry = C9H16O3SiW | MND = 9
W         0.41986389720637    1.38164078223704    3.01478330704689
Si        0.50568996911547   -0.26703265864591    5.58639817779989
O         0.64828476011494    2.46314523379436    4.27908907511275
O         2.06965671306405    1.03424476381816    2.20372456348052
O         1.30285126831812   -0.13321144246729    2.40508100074659
C        -1.70602632909648    2.21223350431713    2.21161083749343
C        -1.31025394927159    1.20781119983785    1.27415253063135
C        -0.14654168632514    1.65286792806452    0.62808433308540
C         0.21163752346357    2.91387001401499    1.17333877271167
C        -0.78150508459473    3.28113060769941    2.11337469498691
C        -0.73373326512876   -0.06982294898077    4.15085673587990
C         2.33744078150151    0.07813895727822    5.07781244070840
C         0.02856598353876    0.95078593358500    6.98592657038095
C         0.49617065293015   -2.04132591867164    6.31472974889686
H        -2.66924073084144    2.26237912083864    2.71030960275434
H        -1.90353542665820    0.34753860003845    0.98744630040291
H         0.35676404715619    1.15752159261926   -0.19398441911763
H         0.99518468292072    3.56155255943349    0.79482475223604
H        -0.87589829206881    4.24871680724653    2.59524715209040
H        -1.71906494515746    0.20163258910627    4.54937368255497
H        -0.83896737010992   -1.02791753089484    3.62160385937382
H         3.02689678874988   -0.08876936857888    5.90226353369856
H         2.64599612568225   -0.57184306274973    4.25680137873251
H         2.45382620747558    1.12391236325634    4.75044070501888
H         0.75637800862837    0.93893287987875    7.79012059868485
H        -0.01277808005813    1.95925529830188    6.58248479607793
H        -0.93861788997417    0.71415109718613    7.41657426459316
H         1.18112151678858   -2.12381674354744    7.15090799637138
H        -0.49067305628293   -2.30812305794442    6.67538991643486
H         0.78790717895763   -2.78049910008805    5.57643309113155

