54
CSD_code = GILKOD | q = 0 | S = 0 | Stoichiometry = C18H27AuCl2F5P | MND = 4
Au        4.62285890389477    5.92187450701831    9.06900821410391
Cl        5.60798204156437    8.00063000712706    8.79220987745057
Cl        6.72734930015625    5.05429822438368    9.01850457302441
P         3.64274282356035    3.71520301089077    9.37369782020840
F         2.90917190148820    6.92217318331087    6.65286129394887
F         1.07349661198300    8.90555977040343    6.47355341598685
F         0.25163737370921   10.21396183808577    8.72912532176133
F         1.27999566386214    9.49403446203973   11.15733795479966
F         3.09516334635867    7.48340012207144   11.31471631006064
C         3.02195297591141    7.13088321039143    8.99289141337621
C         2.50676983819026    7.54351594497595    7.77520087393526
C         1.56999919364698    8.56577469758206    7.66615427559447
C         1.15187765508113    9.23233842899599    8.81246312607709
C         1.67526156682496    8.86421476264025   10.04809137419813
C         2.60587283064879    7.83466106834860   10.11265495280783
C         1.72098068269560    3.81020715607254    9.25311633990977
C         1.32479121188434    4.16325222268522    7.81726140617176
H         1.87333831885904    5.02825509541961    7.46132818638619
H         0.26336283511538    4.40785987304886    7.79520580043953
H         1.47769684270518    3.34086906455933    7.12580255876080
C         1.22616399256305    4.94665862893846   10.17023185360688
H         0.52936987870511    4.57003435968313   10.91493402666141
H         0.70432627192936    5.70597158050699    9.59280657882699
H         2.03904009335995    5.43298492990358   10.69423465627986
C         0.98799731068732    2.52473073379417    9.64967808267624
H         1.31206060216478    1.65910871594385    9.08414223841473
H        -0.07240548447315    2.67188161166849    9.44498991356940
H         1.08538140181197    2.31181163434510   10.71007579417641
C         4.08479513040065    3.01996027163561   11.09869737895483
C         3.27023547471866    3.73051335784715   12.18303544033804
H         3.42316523282471    4.80756161502142   12.14976355961790
H         3.62433057256105    3.38760442514365   13.15445000044078
H         2.20926048346090    3.51253216457165   12.12652479200622
C         5.55311559075727    3.31870995579648   11.40216331672145
H         6.23263126764595    2.89063289933588   10.67557223936230
H         5.79883023094547    2.90603666883318   12.37960498441628
H         5.73103483450244    4.39092013439639   11.43894712007453
C         3.85047509981928    1.51029266281463   11.20102929553435
H         2.83612195048693    1.22431666504262   10.94563664369772
H         4.02980199327469    1.20688510008389   12.23178200715537
H         4.54011409787865    0.95290331676936   10.57606394188171
C         4.31769553841750    2.58650842833902    7.97550833728145
C         4.44866276859929    3.48151188478644    6.73793582708095
H         3.52699769384783    3.98947071388976    6.47394546064890
H         4.74878441624128    2.87221779800641    5.88715633970404
H         5.22237147534289    4.22984068075730    6.89636737613365
C         5.71527104679272    2.03866329617024    8.27758357078460
H         6.40333412301082    2.83360858615358    8.54369459048221
H         6.09314954648560    1.57199079651705    7.36889776748409
H         5.70980095748113    1.27854298636428    9.05238707654565
C         3.42206133740213    1.38316325235946    7.66726959655147
H         3.26770534445610    0.76153282921700    8.54510251536129
H         3.92986514700319    0.77237854608407    6.92157198761801
H         2.46235266075219    1.66385211923012    7.24673060090820

