75
CSD_code = GILLIZ | q = 1 | S = 0 | Stoichiometry = C40H27N6ORu(1+) | MND = 6
Ru        8.34803318501045    2.60781200654270   11.78418939509134
O         6.89944727578283    3.10447999161448   10.38044351219823
N         7.10556594939715    3.79561992563772   12.99240460551794
N         7.25375070691438    1.22985071644077   12.76806364578109
N         9.63428572385106    2.05305194610955   13.19652278268311
N         9.31537928945323    1.45752018311673   10.50914417920537
N         9.32678568723807    4.01584867090704   10.75720860402229
N         4.73579889434869    4.15911673428432   14.42498669354739
C         5.85714258442584    3.60142023947476   10.96128984356501
C         4.66181119629555    3.88623399272506   10.29942978054771
H         4.61528759436273    3.72925475233305    9.23319272403849
C         3.54379971146805    4.32734072294777   11.00034272786014
H         2.63782807640936    4.52898279039317   10.44878319844621
C         3.54085971718353    4.46104443016476   12.37137090632819
H         2.65258801201417    4.73377196426084   12.91513544628468
C         4.71873219859277    4.21570744960343   13.08534005691249
C         5.88746384542948    4.00864001584332   15.03347295241509
C         5.89942117449877    3.75552385297744   16.45862197307896
C         4.69063049040566    3.55006923970816   17.12792332443117
H         3.77637583581789    3.66176925130650   16.56714170636682
C         4.68049693463490    3.20122065169793   18.45941506522268
H         3.74537786986482    3.04276102745022   18.97372109056239
C         5.88446671654192    3.03902355155198   19.13590225206085
H         5.88281490307078    2.74333622047493   20.17410437992804
C         7.08311591264289    3.26263453972258   18.49212354345183
H         8.00064491647191    3.12795070823869   19.04277780645974
C         7.12099234173522    3.64784909596031   17.14824420256245
C         8.35464621647499    3.99768117662126   16.46162080776822
C         9.54355891306474    4.23594113042669   17.15646844876305
H         9.56681041247839    4.13199384471625   18.22886834265614
C        10.68705327183140    4.64908460883791   16.50754793746195
H        11.58669945072417    4.83982844752067   17.07202972377798
C        10.67150798924063    4.85314265377885   15.13432834825870
H        11.55431345644679    5.21394215560052   14.62872255904057
C         9.51694638680317    4.61585042872882   14.42287109787813
H         9.49598264107911    4.80417071050458   13.36028079094954
C         8.35479282849191    4.17011306143243   15.06024853115152
C         7.12885402114631    3.98107504130329   14.31634849604891
C         5.91148520533896    3.88515880919485   12.36894650864197
C         6.02402356302494    0.84746894682416   12.43257356826759
H         5.74719719459877    0.98261206356017   11.39385220518755
C         5.13096085975082    0.32074189895803   13.34858703603547
H         4.13749091585379    0.04678747418501   13.03483694763437
C         5.53230839934502    0.18036952488818   14.67173166292925
H         4.84822805264997   -0.19042879213352   15.41788248403128
C         6.82793327853818    0.51923559195649   15.01629538549842
H         7.16862908011297    0.41874273475509   16.03359279183360
C         7.67793208481910    1.03624918559296   14.04001779396255
C         9.08228382927478    1.37869839523173   14.23577387936032
C         9.84348372441590    0.97940336913138   15.33263411977570
H         9.37374767140916    0.46598372922553   16.15523573351479
C        11.20099877550098    1.23026495016311   15.34505047299125
H        11.80791542711446    0.93313377770421   16.18458104253286
C        11.77124566891602    1.85675524557031   14.24062147239491
H        12.83143887892930    2.04382435718678   14.19630616472195
C        10.95539352395414    2.25508952754696   13.20347612954610
H        11.36421908224455    2.77668944086997   12.34491987241501
C         9.25224577379278    0.12712435073946   10.46901313018501
H         8.62234081773588   -0.34942363754707   11.21097402112899
C         9.94154745979211   -0.63137590801935    9.54296899529233
H         9.85215168028023   -1.70528609652800    9.55107041215349
C        10.74486392697258    0.01480014323650    8.61127183223814
H        11.30032166206838   -0.54608245897644    7.87705907519183
C        10.81338111267790    1.39468362409443    8.64314072409451
H        11.42876766453906    1.92198617890442    7.93337915283786
C        10.08123804792508    2.09831677141491    9.59861814555962
C        10.03273472908892    3.55501864303089    9.69888981595146
C        10.58975475716427    4.42238148382140    8.76051333268567
H        11.15011911688915    4.03293969926715    7.92700624943584
C        10.39425204419474    5.78488633687683    8.88848386490568
H        10.81471186097421    6.47069503661330    8.17072430474757
C         9.61916880022388    6.24392629310677    9.94480383883142
H         9.40670535921550    7.29339191066719   10.06645256597837
C         9.10927245765057    5.32838643248136   10.84618267742159
H         8.48774518141362    5.66649303542383   11.66680110772619

