99
CSD_code = GILMEU | q = 0 | S = 0 | Stoichiometry = C42H54N2Zr | MND = 6
Zr       12.18077613461678    5.47212509843156    9.76676369755975
N        10.97175375305443    6.09867928834382    8.25447246708195
N        12.32964045551054    7.45635206347645   10.22918131668994
C        11.56112984764443    7.34418933972529    7.96387665792518
C        12.21709679295704    8.02734027471068    8.95274764919630
C        11.58701782929430    7.82115524897947    6.52948797449626
H        12.61110057033672    7.82158547704455    6.14898820925993
H        11.19776198196888    8.83412080389284    6.43381089160253
H        10.98652371216539    7.16070006183149    5.90735358209908
C        12.92954286081644    9.32681545199511    8.65167509036617
H        12.28586369432595   10.01132652154278    8.10043648613093
H        13.81273524917281    9.14956439184389    8.03235100471480
H        13.24274067730607    9.80809657890119    9.57601196074720
C         9.86078905381444    5.65628955520702    7.53647898938806
C         9.83799596686297    4.33703115113774    7.02082719796786
C         8.77915380477579    3.90877033373797    6.23870749423216
H         8.79078454437693    2.91248414474030    5.82438050138287
C         7.70983443357489    4.73725815674787    5.95864695955813
H         6.89612632177345    4.39389260540656    5.33785074150801
C         7.69344608049024    6.00535007946612    6.50243703993938
H         6.84246511200364    6.64285599141148    6.31674191659097
C         8.73514672757499    6.47871861923410    7.28487152256800
C        11.00206833120797    3.39852791681602    7.25380185422225
H        11.58208626662380    3.79598423074200    8.11248122878360
C        11.89969436968940    3.39388128854223    6.01004744214583
H        12.25796034254425    4.40220008901741    5.80396371333590
H        11.33966367573378    3.04859527722031    5.14311810096535
H        12.75667156190993    2.73581192276196    6.14737616265981
C        10.54045433866306    1.97910574687509    7.59739105674968
H        11.38045697464890    1.36975992426667    7.92566443559067
H        10.10007492883096    1.48689325747787    6.73400390049143
H         9.80042700558272    2.00558453285343    8.39420920711273
C         8.56352376042117    7.82993660236304    7.94086502418211
H         9.51574818174205    8.13771193249523    8.37683888006061
C         7.53943815773959    7.68185504171945    9.07110222079629
H         7.90410617357104    6.97908951702407    9.81916033592690
H         6.59404639588813    7.30765038039314    8.68369931214791
H         7.35723746188324    8.64240802631732    9.54723000737336
C         8.12267675270922    8.92020625193121    6.96132641195773
H         7.08744205247174    8.78627340498296    6.65747000125313
H         8.74438634231029    8.91060312911272    6.06950056845663
H         8.20848065688543    9.89808128751643    7.43123457881220
C        12.50480633007379    8.26407387261951   11.35798186107062
C        13.68580706248006    8.14492278247529   12.12426512580107
C        13.90148593647995    8.99745331528168   13.19313207500976
H        14.81360202684201    8.92780531116031   13.76379858768797
C        12.97159937211409    9.96177015190782   13.53665219234465
H        13.16528541565512   10.63651769817074   14.35724636989760
C        11.78553490424185   10.03717806154910   12.83544162642768
H        11.04696498140412   10.76852909245963   13.12848060571516
C        11.52257422811175    9.18977089598174   11.76970821930735
C        14.72826093285547    7.12217736079579   11.72541882768414
H        14.18761351993618    6.22523260935895   11.34539749248088
C        15.58879254533394    7.70897182814918   10.59733453155294
H        16.01258546851503    8.65994568230316   10.91660988830461
H        14.98633541808213    7.87894935146231    9.70716153010948
H        16.41132125643798    7.04177508041246   10.34432088888807
C        15.62640819103742    6.69236678152755   12.88606951514613
H        15.03212163201188    6.46031624194527   13.76475371239859
H        16.33842417594708    7.47628648301329   13.13549335289830
H        16.19138973725344    5.80404443246125   12.61498733098308
C        10.15863580568715    9.22693638518278   11.11953770520577
H        10.09166926037848    8.37438812203193   10.43214177102330
C         9.93978953180799   10.52284326754684   10.33648614267694
H        10.66943762169183   10.62047328788902    9.53901251870961
H        10.03429038478666   11.38454721673958   10.99394960637581
H         8.94452738358401   10.53561958755806    9.89755947181844
C         9.05864643827899    9.07380492481057   12.17640759528826
H         9.01620824385673    9.94471753437268   12.82574539652344
H         9.23387523990701    8.19696047253454   12.79461014213151
H         8.08842354757014    8.96655288710203   11.69756829383958
C        14.08750876642591    4.89246126584032    8.70654617949736
H        13.85740306949755    4.57210881299762    7.68070774580771
H        14.85140072015943    5.68169254875210    8.67612533836617
C        14.49770505188567    3.76728708217884    9.55304378472905
C        13.91574776590348    2.49087680217413    9.41755303379177
H        13.20811456339882    2.31563666432296    8.61750573007135
C        14.26981565301035    1.44312523348516   10.24406578139230
H        13.80398714087909    0.47622023924972   10.11018711301117
C        15.22505632780283    1.61481799660526   11.23495225002857
H        15.49617779903124    0.79520748096425   11.88280015447301
C        15.84974458271100    2.84592940091478   11.35638091498936
H        16.62791156257287    2.98233948067074   12.09450163718796
C        15.50330236141996    3.89449762577133   10.52812350428195
H        16.04760806229121    4.82565674218451   10.59841914344603
C        10.91615514666522    3.86458250015655   10.71900906261380
H         9.84834964898883    4.07002069991137   10.55616424608892
H        11.15565612690603    2.80450293414254   10.59876667766325
C        11.45612055650273    4.45184165743335   11.92908163628479
C        12.56338940617438    3.89067963813900   12.60855959401176
H        12.97583703442837    2.95095435666955   12.25755884004883
C        13.07584074893883    4.48166143118085   13.74467718090724
H        13.90404061903724    4.01212932743054   14.25674749838557
C        12.52657635988968    5.65436716627306   14.24582043466118
H        12.91605816044267    6.10287858036290   15.14672074299435
C        11.45741365916739    6.24196521272800   13.58368180812794
H        11.02874410620924    7.15286408816510   13.97702214950995
C        10.93128821589268    5.66641621558126   12.44429870105628
H        10.05226085593408    6.10028709868189   11.96352294523865

