52
CSD_code = GILNEV | q = 0 | S = 0 | Stoichiometry = C23H24ClNO2Ti | MND = 9
Ti        2.80426075517621    1.68683074468664    2.77381714973805
Cl        3.86827144596812    3.50173991843003    1.98114062157729
O         4.30981930245913    1.18346778597641    3.50001252050038
O         1.58616575848955    2.86712907171121    3.39619775687225
N         2.12313846582178    0.75576593615971    4.63562793697020
C         4.85153757511717    0.18040022133485    4.13233258789985
C         6.23395541760822   -0.12736255569259    4.00047108602755
C         6.71164391156829   -1.24158999468090    4.65751382682536
H         7.74938236662647   -1.51629802923787    4.55945943944330
C         5.91493651825453   -2.05754186802767    5.47359542847074
C         4.59731417784795   -1.72025611997136    5.65656894394246
H         3.96501763011453   -2.30856326957540    6.30671767299247
C         4.04419108994167   -0.60960535240330    4.99956740007681
C         2.70855411089324   -0.19680854217223    5.28291073348547
H         2.21042797390426   -0.69280019842193    6.12126556619291
C         0.89933391762709    1.30022760858337    4.96979835072522
C        -0.04066271382960    0.84054154326107    5.89169074739118
H         0.12958613027661   -0.07395418358311    6.44120872864362
C        -1.20821109008412    1.55132382259654    6.08233217804961
H        -1.94363587937259    1.19320743805786    6.78639857570921
C        -1.44435167342721    2.72589197791832    5.37360308534489
H        -2.36170736454818    3.27064855654431    5.53999008075365
C        -0.52767944698669    3.20316188693945    4.46029947453061
H        -0.70334711929491    4.11244840238534    3.90521517206837
C         0.66062225429215    2.49607525984633    4.23967664301893
C         7.12739429480749    0.78278747009649    3.16729708001764
C         6.63164746810680    0.81651625003779    1.71412248479095
H         6.55265719962632   -0.19380302083197    1.31490130669851
H         7.33585791235211    1.37501491809901    1.10193504751572
H         5.66221301080136    1.31059540162831    1.64810042428370
C         7.07600047733027    2.19933882758496    3.75960036397185
H         7.74291707512341    2.85437299058288    3.20445232290126
H         7.38927168514005    2.18574226657105    4.80230801850406
H         6.07044967801041    2.61393843171666    3.69732255764094
C         8.58742015303907    0.31714218743694    3.16438665341668
H         8.68688758238166   -0.66840238739271    2.71485210122716
H         8.99751906228836    0.29671526550528    4.17145922521619
H         9.18115164560756    1.01364127423295    2.57693178299929
C         6.52463840040241   -3.25491719500658    6.13721762100963
H         5.80249907648598   -3.75492612786748    6.77696028474643
H         7.38112736566065   -2.96027535955712    6.74156002365395
H         6.87479395970443   -3.96430788064445    5.38836828275144
C         3.03798036104140   -0.26165561511463    1.38325860811328
H         3.85677331065437   -0.97102751697035    1.39872059018135
C         1.80987588103101   -0.40923099844421    2.05679765744477
H         1.52393554448414   -1.25407892358675    2.67022971008466
C         0.96100027007586    0.64758373529430    1.66241928197776
H        -0.08218129216234    0.75530430726270    1.93380670523305
C         1.66579989652995    1.45651646361036    0.75170162577019
H         1.26435963628183    2.29682966438694    0.19685584413992
C         2.95609814433557    0.89435016937950    0.57908125552908
H         3.69554868641780    1.22855534132534   -0.13925856707134

