28
CSD_code = GILQAV | q = 0 | S = 0 | Stoichiometry = C9H10N3O5V | MND = 5
C         2.55569568288613    7.58190022989111    6.64458448378588
C         1.89293882461379    7.04370309070947    7.76053547046760
H         1.99218967972917    7.53762313633390    8.71596302424227
C         1.12598739714478    5.91325055647279    7.64049130611584
H         0.62059863664401    5.50641461261487    8.50275054712012
C         0.97617732384905    5.28245058490225    6.40432527968995
H         0.35205337309355    4.40534226827284    6.33720390248009
C         1.61790468570744    5.77876336933909    5.28695748849260
C         2.44533754648608    6.93911149523238    5.38576247697359
C         3.27073862544859    8.82089590777336    6.75326400315317
H         3.18312474830858    9.38932190685258    7.68825474381932
C         4.89875054959108   10.88648477274719    4.48920124560150
C         0.69277111421544    4.18494782715571    3.79132491861425
H         0.76564592008535    3.98877468536381    2.72333619737803
H        -0.34323380694157    4.43007123218841    4.04603327046173
H         1.00462829692485    3.29395312580681    4.34740995470554
O         2.16346367706686    9.79008947177354    3.75028584022572
O         3.40426102457076    8.46622190997243    2.00216097901305
O         3.04973919879149    7.35426762064812    4.31890071659641
O         4.89953959341204   10.09250269459137    3.54825442433072
O         1.55213174411017    5.27160363480148    4.03429680333414
V         3.31805706697441    8.80476985621751    3.49249447874034
N         3.93478839627053    9.26860952758713    5.76172578855481
N         4.50298529705989   10.49168420358863    5.73452082412008
H         4.39189913280034   11.14449748899918    6.51328845159033
N         5.38730527759326   12.14266802577434    4.36224143217813
H         5.57177903747501   12.44897747037403    3.41955332139862
H         5.20854195608899   12.84959929401574    5.05407862681617

