67
CSD_code = GILQOI | q = 0 | S = 0 | Stoichiometry = C32H29N2PRuS2 | MND = 9
Ru       -1.27319334603186    6.13884145969051   11.90515431288942
P         0.04586644175718    5.10661414004598   10.36480776895172
S        -2.82211413033356    6.55498210208996   10.13341099645594
S        -2.37915017100297    4.03821441423211   12.19695092097079
N        -5.29269101451862    4.90846304898031    8.03012957806560
N        -4.70267750640986    1.76530854955916   10.56612485762749
C        -3.67905847507078    5.03917692798080   10.00079837901667
C        -3.49250217728080    3.99085959403401   10.85454828511514
C        -4.57566054503263    4.95173971166079    8.92649873696389
C        -4.17273132747623    2.77749625224494   10.68599678391826
C         0.34585406476790    7.60130421362434   12.71406673303431
C        -0.79819283217729    8.35310035557313   12.38214219452900
H        -0.69966641327354    9.23273270415273   11.75380160230729
C        -2.05403709404040    8.05909411777669   12.96582446152579
H        -2.89525356106927    8.70433238027175   12.73939563356647
C        -2.20823164644977    6.99499721427427   13.86011939273868
C        -1.05872368416739    6.20821702618181   14.15522716325861
H        -1.14586898814885    5.40593096974504   14.88275692022868
C         0.20103008731490    6.52553094916041   13.62885383283781
H         1.08221004401656    5.98392185571331   13.95766679764707
C         1.71038423957229    8.00827319198552   12.24108143507712
H         1.65448441618244    8.59213756371636   11.32477704600692
H         2.33762261817302    7.13562537954881   12.06344541680947
H         2.18955579648110    8.61861121358236   13.00890850435822
C        -3.52009324660499    6.71279592988002   14.55282520805330
H        -3.45805155709196    5.71242030382143   14.99742615463629
C        -3.72725392228866    7.73339005501340   15.67683612497070
H        -3.79412977570818    8.74132936970206   15.27140391351224
H        -2.90144517491659    7.70038961710172   16.38565475655347
H        -4.64904760866226    7.51517915392661   16.21001658821126
C        -4.69978247561315    6.72209943327984   13.57959665692587
H        -4.90494874433539    7.72345313464921   13.20814181264212
H        -5.59402438677860    6.35471409226732   14.07651134359379
H        -4.49405566794908    6.07315052536379   12.72925018356751
C         1.50688698994018    4.42845661091757   11.21075531421740
C         1.25714871264531    3.64283464935245   12.33647249005574
H         0.23110403663156    3.46310931076503   12.63862709527719
C         2.30527072612805    3.11406132790131   13.06552572848206
H         2.10427878258223    2.49736259509673   13.92927382584899
C         3.61314570282569    3.38403114024808   12.69248632262827
H         4.43362629040273    2.97606992037998   13.26379073570796
C         3.86611514894698    4.18712585245425   11.59332089531467
H         4.88448029975934    4.41034653767347   11.31028152838229
C         2.81977773896522    4.71064671534634   10.85196039147065
H         3.02701333187320    5.34124367941802    9.99921696803194
C        -0.64153407560058    3.70503608309664    9.42650214736827
C        -1.41091365658999    4.01307926024707    8.30389705478001
H        -1.49357030098925    5.04202877129883    7.97714014109056
C        -2.07670563641115    3.01151901996676    7.62282712091805
H        -2.68623118220998    3.26049837431703    6.76751854901746
C        -1.98332220936925    1.69914739988145    8.05680466529881
H        -2.52104487456739    0.92046921004812    7.53839312407428
C        -1.20754862709420    1.38769605939784    9.16096868437658
H        -1.13508431484159    0.36508408311428    9.49942704163882
C        -0.53885671762717    2.38392236055647    9.84965468457729
H         0.05532247859258    2.13488037601801   10.71663835357985
C         0.70785539255272    6.11435563781702    9.00678241142981
C         0.38963917918130    7.46317254466735    8.92715026346899
H        -0.27296531911244    7.89013248612304    9.67069316934284
C         0.88055100678633    8.23271386740118    7.88690018026937
H         0.62529153845543    9.28021267700372    7.82171458027124
C         1.68953961345775    7.65480733466236    6.92314120471815
H         2.07306854453223    8.25384525314784    6.11067023506965
C         1.99407998543043    6.30321150961809    6.98817063074333
H         2.61074258907460    5.85125163481663    6.22524092280659
C         1.50186791127372    5.52974632999534    8.02203804551798
H         1.71534867856920    4.46997443639166    8.06726499767235

