37
CSD_code = GILSIF | q = 0 | S = 0 | Stoichiometry = C12H12N6O6Zn | MND = 6
Zn        3.42678092572745    1.94679313926804   10.11600844389022
N         2.69971157126972    3.05198913359050   11.51040424858680
C         2.96523703061201    4.34493287273025   11.51021224116167
C         3.85214401937544    4.75790027646726   10.33203750570257
O         4.19095952790607    3.77240185694447    9.58436048232436
O         4.18710826788112    5.91568637397610   10.18744483222974
C         2.45886951084672    5.16444708953826   12.50833713634402
H         2.68047754357411    6.21972697894695   12.49857854567776
C         1.67413444828639    4.57971876863918   13.49550619694319
H         1.26593547784918    5.18969830962322   14.28855100613121
C         1.41087020909839    3.21616491923487   13.46540091425717
H         0.80399238056584    2.72918305690353   14.21195870582564
C         1.95512765810419    2.46959768178668   12.42915230123934
C         1.77764676267440    0.96167064387937   12.17310728521833
O         2.38869073222294    0.54080804196649   11.13455777729997
O         1.08062027585874    0.30740039269037   12.92367129292340
N         6.03750051854778    1.72479045175090    5.63206740749398
C         6.16387545365529    0.47891575407688    5.22582010202156
H         6.69059190932835    0.33842109657362    4.29197711408726
N         5.73020838733936   -0.62322889346482    5.81604060792400
C         5.09348428132318   -0.36617899508856    6.95477445900568
C         4.88176374290763    0.90470484414291    7.51236347862803
C         5.40170780785047    2.00712811931891    6.78143911138400
N         5.30054520640719    3.27683614358947    7.14964909349357
H         5.71482424608236    3.96675577981506    6.54579903895756
H         4.86107430611562    3.56334764315035    8.03031727180766
N         4.18143414001419    0.75188879892711    8.68852642852913
C         3.98374749592496   -0.53479088126469    8.83240929007403
H         3.45516731214858   -0.95333730822677    9.66674868274402
N         4.51191656313066   -1.25383553278916    7.81903362993478
H         4.48996102224794   -2.25391100665016    7.70344263154554
O         1.48370253474770    2.09649195483386    8.95115561661901
H         0.98927358451220    1.38330494075093    9.37126051345207
H         1.42104763243322    1.97920722245598    7.99904249117379
O         5.42608600288000    1.83999779989296   11.21312369114551
H         5.84522598719443    2.64821744005441   10.89677404161475
H         6.05915552335608    1.12415509196151   11.11484638260805

