115
CSD_code = GILVII | q = 1 | S = 0 | Stoichiometry = C42H54ClN14O3Zn(1+) | MND = 5
C         6.09721494118007    4.70009878051356    9.38713704489016
H         5.73178329168440    4.06376934440131    8.58064763586353
H         6.85920151333461    4.13430099571195    9.93631609758847
C         6.72411151631141    5.94755522847325    8.77226284348211
H         7.15034247950776    6.58206711178993    9.55116558899317
H         7.53284451681587    5.64526682421822    8.09499418002641
C         6.23713045928195    7.97252174608657    7.47153217851927
H         7.01837589566063    7.71768454000447    6.74354333851280
H         5.40939963148740    8.45365996888570    6.94784463393747
C         6.81056581316607    8.93176348273106    8.48084817102841
C         8.13737795261055    8.80937331297205    8.88926251564563
H         8.76199190034442    8.02565781591459    8.48748589573011
C         8.67126345395331    9.71737789745458    9.78310916174893
H         9.69623291213508    9.61526031311891   10.10487539537555
C         7.91783071629752   10.77828116869935   10.25406033723136
H         8.36732489751629   11.47624499709050   10.94040289345487
C         6.60256615582402   10.93526679476079    9.82215812084031
C         6.04928153008197    9.98599716602121    8.95679166349347
H         5.02967228766676   10.11994290898009    8.63089387159791
C         6.36463571601936   13.01900771178398   10.93222913754458
H         7.25833108115567   13.41467680697866   10.43154263959745
H         6.65378100553393   12.66447058378563   11.93306611166490
C         5.37667905061951   14.12161298094293   11.07405742951975
C         4.02109129164305   14.17245057862408   10.83004399430899
H         3.33752421461932   13.44811565782601   10.44333072751286
C         2.35699810274776   16.02273524379331   11.15374127776675
H         1.63550889280179   15.23615700646245   10.92532548131648
H         2.30021467200781   16.78656508081370   10.37237996570370
C         2.07577359221909   16.67969444609781   12.51472190996658
H         2.71196747695952   17.56166014525864   12.59325431971068
H         1.02276547270763   17.00140640788357   12.54011225653911
C         3.98136838733971    3.98366249178409   10.33176373287361
H         3.30531522041948    4.21279130905554   11.15574971068465
H         4.45957763758093    3.01527686106562   10.52707434512291
C         3.15707987652264    3.88795285977886    9.04615439982967
H         3.79171148488596    3.55853677946310    8.21990286908895
H         2.38655125253914    3.12322353672919    9.18585456016488
C         1.12738598715893    5.29956947304037    9.07471965419294
H         0.73465346099501    6.16934395176090    8.54531892917855
H         0.58594864841053    4.40775407146779    8.73512702306064
C         0.92079857593223    5.49221860820585   10.55194334328966
C         0.88653082696363    4.41038019939190   11.42214341511356
H         0.96087796469098    3.40116233394867   11.04572085043649
C         0.72302226861573    4.62321426806672   12.78291542097251
H         0.69994043166162    3.78263992797163   13.45936311153140
C         0.57436317766317    5.90080417195222   13.27632847079270
H         0.43969614369023    6.08444757411165   14.32986834047089
C         0.55434512539082    6.99621100425787   12.40621807693856
C         0.73689123984016    6.78024935372613   11.04184942377650
H         0.71165170855084    7.59853469251219   10.33920357224499
C         0.07070476121960    9.36987283318209   12.27375954706020
H        -1.01582347545550    9.38368915251283   12.12318860508647
H         0.57609244158103    9.41375181559276   11.30356604174333
C         0.49564198405388   10.54168996651270   13.09225913006667
C         1.52438653978800   11.43613334611983   12.87163606582462
H         2.23530103459247   11.54006248872744   12.07985153033668
C         2.29623378146159   13.41523547967118   14.19472689951005
H         3.20060515159809   13.35386386964210   13.58393040201305
H         2.57695984414646   13.43026336441924   15.24977231165034
C         1.51064726892017   14.69004476902865   13.82217716086199
H         0.96812346301680   14.49444653369616   12.89424482550643
H         0.76552148151893   14.89462300675225   14.60304987682862
C         5.43844815992182    5.44318276492171   11.59313281328734
H         6.45028079292322    5.84377208250598   11.50531036931537
H         5.47607684056224    4.57540046398314   12.26110402779207
C         4.55044590960989    6.52605703939425   12.19617732803290
H         3.53105693061067    6.15754670788117   12.33951000863240
H         4.94837357150041    6.82258014054641   13.17353248697797
C         3.61687680448376    8.73926921959513   11.76507665571799
H         2.62814632270816    8.31272923235859   11.91352813592790
H         3.56355402424811    9.49045434753281   10.97289379239016
C         4.09018717698820    9.38156211675525   13.04256107576600
C         3.37466604075576    9.24171950525507   14.22556378812018
H         2.48428702531242    8.63345091679017   14.25465910517784
C         3.78701734997897    9.92227056186648   15.35706949006454
H         3.21996143641566    9.83185927466632   16.27021253052648
C         4.90462604605949   10.73875563066430   15.33629990831956
H         5.17137928771867   11.29052043534243   16.22203165922337
C         5.63980544723447   10.86331563849548   14.16142677840661
C         5.22815493040307   10.17044663228079   13.02405687746504
H         5.80126390213465   10.28131773969311   12.11680914017398
C         7.16697252827176   12.48884587666455   15.05879820948742
H         8.13469324949323   12.87631922451978   14.72978455845212
H         7.29760535103126   11.92432283167903   15.98780656203979
C         6.20925857568013   13.61170249248486   15.27794600471391
C         6.02355623915132   14.77500707134661   14.55389772709403
H         6.51164618534365   15.17471839818663   13.68962917029084
C         4.37247580321474   16.64464017315359   14.84203795713578
H         4.74582200747884   16.96087081369715   13.86524398132589
H         4.64390785956710   17.38447631571158   15.60086495161107
C         2.84511323998638   16.48525065898565   14.81295534313941
H         2.55337073923162   15.90613103287038   15.69033455837570
H         2.38429643601447   17.47771930035874   14.88911444864657
Cl        2.76953359562262    8.42211945889369    8.43384220099380
N         4.97405304912468    5.05449966181391   10.25736634170529
N         5.70175714340618    6.72678940996604    8.07178628035924
H         5.38564843764547    6.16506403657534    7.28038922241582
N         5.74955795937900   15.33399382916404   11.53771749354255
N         4.72511259835114   16.10069209367715   11.58640630350976
N         3.66706694988586   15.43403301778054   11.16153858272700
N         2.42110606018634   15.79345099459696   13.60811608397288
N         2.55807869442378    5.18222472092375    8.70212309159129
H         2.56414785077739    5.27459688723707    7.68832466947268
N        -0.07871208824155   10.86994410751187   14.26912676161806
N         0.51949555661145   11.88089611221304   14.76408254308580
N         1.49805539037879   12.25071058765881   13.94783973914173
N         4.49485055706421    7.66136576252274   11.27328156956737
H         5.43291065654072    8.06399162619435   11.21807395272438
N         5.29560049720635   13.60344899496755   16.27209067565106
N         4.58472867419460   14.66385690842641   16.20076802114828
N         4.99648596025669   15.39120901049383   15.17116592143471
O         0.41600439757142    8.19982039913657   13.00594991838101
O         5.79327828875297   11.96404076659324   10.17852543966045
O         6.75684802941719   11.62834019550546   14.00059282474025
Zn        3.92967939822424    6.83080363574079    9.36450445356491

