51
CSD_code = GILWUT | q = 0 | S = 0 | Stoichiometry = C20H20O2S8Ti | MND = 12
Ti       -0.78864192472001    2.24388824060457    3.20409763670792
S         0.54518870827989    0.92313832122340    4.69713461563241
S         3.28410494383477    1.87953177717639    5.95008790688683
S         2.14703702719902   -0.56268030431755    2.56260037054847
S         4.70261915234576    0.22904220530396    3.79764602427528
S        -0.77709497935321    0.40440996264759    1.66720178313837
S        -3.36373721001339   -0.87575715353396    0.37579972718733
S        -0.82876857989755   -1.82502601386604    3.75334211850503
S        -3.16284316460083   -3.09236467167734    2.47671605327640
O         4.51145152301933   -1.30899040502747    1.68156916418357
O        -1.93493725488318   -4.06468061192669    4.58083109952262
C         2.05706278737433    0.48572218071480    3.98059771586394
C         3.23795160589226    0.83476499664872    4.54133207696164
C         3.90502159923556   -0.69074584922640    2.50155368719713
C         5.07126102285449    2.01551115045460    6.23825280064711
H         5.48314220178249    1.03232181786059    6.44303752330185
H         5.18407605594102    2.65803862459124    7.10554809326521
H         5.55161534604829    2.46207985463563    5.37323895650311
C        -1.51352243469971   -1.00429541242827    2.34789598425099
C        -2.58003830308023   -1.60148427297066    1.76772430874208
C        -1.95582753982619   -3.18110427204437    3.78015531300747
C        -4.63314906110951   -2.11503896948874   -0.00954914007091
H        -5.31405404295068   -2.21945375571917    0.82956205729974
H        -4.15741261005574   -3.06306830557250   -0.24043438986956
H        -5.16171234727731   -1.73833178024258   -0.87929838600686
C        -2.01667094982062    2.50368367838081    5.17475471253889
C        -2.40563916050493    3.54152107542777    4.30305865762515
H        -2.36639680714574    4.59832797353579    4.53218560946278
C        -2.99262575180933    2.96615688791667    3.15231886517734
H        -3.48905211590484    3.49887514041728    2.35070098146777
C        -3.00713111498902    1.56675825652231    3.32666297113551
H        -3.51215067008762    0.86449045918390    2.67628925233700
C        -2.39930956156414    1.27864889942815    4.56792887589461
H        -2.33168151187966    0.30659958832075    5.04000024726660
C        -1.45810130900925    2.67419062862301    6.55275869322448
H        -0.74289759699179    3.49690493729630    6.58768691794926
H        -0.95856192017767    1.76397974376704    6.88017630845663
H        -2.26703461741805    2.89404693227862    7.25276341576286
C        -0.13017926566712    3.34424194208905    1.24971789498049
C         1.02030559232822    2.76288636447243    1.84442247482232
H         1.67421695484238    2.04976840802030    1.35825610407380
C         1.23506900366798    3.37936070613766    3.09602355217018
H         2.09180535392934    3.24699234336961    3.74374559813021
C         0.21459516724351    4.33352579146177    3.28900307352152
H         0.17576679073148    5.04697075003175    4.10282185731543
C        -0.60994899580208    4.32675502668804    2.14014222828784
H        -1.40151077529327    5.03233710474267    1.92445776136025
C        -0.64175935468320    3.08293604628362   -0.13224744461364
H        -0.31222612924019    2.10725996209726   -0.48518277201424
H        -0.25988884868224    3.84405313721345   -0.81586153836852
H        -1.73168492739743    3.11370086245286   -0.16022739891408

