197
CSD_code = GILWAA | q = 0 | S = 0 | Stoichiometry = C86H106N2P2Pt | MND = 4
Pt       -1.46656864828040   10.20369136578790    5.58692454876975
P         0.08589790979397   11.13980753260257    4.21480083098191
C         2.42241966936571    9.89478705370325    5.00747876971015
H         1.75388028458469    9.60742674313597    5.82670238736503
H         2.94191598381941   10.81010362201192    5.30231313367226
C         1.57232171663395   10.15382525853350    3.76716742702539
H         1.20278135166339    9.20055438451772    3.37883905415387
H         2.14408080410285   10.65094497551995    2.97952688522161
C         3.26287525645091    2.36134765379314    5.46712969613763
C         3.08056203648533    3.61253447252676    6.29317763007310
C         4.10495583793766    0.22596762457695    4.80589171816754
C         1.65856369319805    3.61339243041527    4.36090673551422
C        -0.14882812008541    7.30673167209469    5.14777660483935
C         0.46383880790975    6.05806788943479    4.89694224496970
C         2.02394153840290    4.34836007416499    5.50112686321463
C         4.10156649564320    1.29922308974944    5.70215181604766
H         4.75319099485639    1.27652178812689    6.56389967815936
C         2.42691232277327    2.38441560413645    4.33923401043603
C         3.27559910035388    0.25249911018401    3.68438769240940
H         3.28884812647564   -0.58645907179096    3.00358501434915
C         0.74587379093343   12.79809329136969    4.66935951049064
H        -0.13545681820017   13.42896385766847    4.82339847037591
H         1.23579217281178   12.69486535997743    5.64299821537391
C         5.08887818463763   -1.35707835286645    6.34723957510052
C        -0.66749322682705    8.38627055234261    5.34438020886073
C         2.44062693334461    1.32779600159998    3.44283242453253
H         1.80107907579259    1.33162565187410    2.57259703781161
C         0.10686477240224    5.32055494990505    3.76269738192269
H        -0.64697381971539    5.72164323651829    3.09871322916259
C        -0.74911195234844   11.41522888699537    2.59890055406132
H        -1.30986567752281   12.35167689455323    2.67735072225591
H        -0.02211051883056   11.50438037023525    1.78686750884924
N         4.93803653890899   -0.87819303395246    5.04389667237360
C         0.69796054132826    4.10285614866447    3.48883397491431
H         0.41346569105557    3.54186686997578    2.60996461671118
C         4.94877976768505    4.77465823054666    5.00519670046495
H         5.87430555385813    5.33748534200800    5.10935877457730
H         4.23866326020131    5.37691314513717    4.44288622743142
H         5.15844475462969    3.87220499463212    4.43523468219034
C         2.59053488446815    3.27463302991482    7.71273437038468
H         2.43842218529362    4.20641914356860    8.26256939891069
H         3.36923459200243    2.70608610037430    8.22669985526214
C         1.69258663163818   13.44252343674438    3.66231291007106
H         1.22037808040035   13.47496861318731    2.67806167467073
H         2.60844273501976   12.85420526228619    3.57703632727029
C        -1.71357514293910   10.25611807394021    2.34702751870057
H        -1.14743944911378    9.32981282272375    2.22073217406656
H        -2.34993830764592   10.13525487611957    3.24175969064482
C         6.31155242098373   -1.87152889278116    6.78041144213543
H         7.14866685553357   -1.89690203482292    6.09802142049091
C         4.01881607661309   -1.31784786914878    7.24248013442889
H         3.06670796160631   -0.92736832320302    6.91410208366633
C         1.43844820672990    5.56035254207914    5.77323939589508
H         1.71030862075868    6.13627933202129    6.64725630855034
C         5.78030538647852   -2.87527956470340    3.95224697271420
H         5.40083010444676   -3.47545071791374    4.76641490768229
C         5.59843819364235   -1.49212228028273    3.97710038089011
C         2.05799183861593   14.86512480194415    4.08417969108823
H         2.52629641863616   14.83977382615318    5.07078013141722
H         1.14659911841389   15.46119517433477    4.16691435547223
C         4.38632733989535    4.42333911857224    6.37732204962110
H         4.19299533630580    5.34177093843574    6.93614448775008
H         5.12512159390865    3.84182303088734    6.93382382750166
C         6.45260953444505   -2.33883811003276    8.07232090158840
H         7.40576936131368   -2.73307583569993    8.39358088149597
C         6.72508530697953   -1.33657096664030    1.85444036418459
H         7.09499070606754   -0.73204464587771    1.03908012652106
C         1.29574027181365    2.47088279346388    7.71255370547242
H         0.98822136596756    2.25154026741352    8.73283993521578
H         1.42942543768992    1.53049593157368    7.18250408754357
H         0.49944772671418    3.02763500424302    7.22327621530573
C         6.08023674691997   -0.72848217699372    2.91325275606766
H         5.94602594997781    0.34331483600708    2.92676224518896
C         4.17289795374000   -1.77828740002862    8.53499239192788
H         3.33447993219352   -1.74242882203593    9.21540685362214
C         3.00642616047950   15.52267043967749    3.08911288124128
H         3.25298713321706   16.53283073418569    3.40646105420255
H         2.54913313955601   15.57536280010245    2.10337529519117
H         3.93036816909683   14.95398009338384    3.00757494639851
C         5.38763813153962   -2.29345004230402    8.95718721266677
H         5.50352976782108   -2.65620473256402    9.96731193784540
C         4.28579605516124    8.54169574043554    6.03289370093634
H         4.99770817791623    7.73803484410723    5.86459831188536
H         3.65000736922620    8.27019465747906    6.87261396286669
H         4.83799323103137    9.44057517441825    6.30040328533846
C         3.44052189801235    8.77965016880319    4.78816669726677
H         2.90967127992912    7.86103911928886    4.52984472078472
H         4.09109360111722    9.03756551505369    3.94840786542016
C         6.90831195817836   -2.70960750320032    1.83830725623994
H         7.41575402694690   -3.18120933209145    1.01040357594531
C         6.43379758070520   -3.47288477779213    2.89256826402106
H         6.56520514113121   -4.54516161246737    2.88565799387282
C        -2.60043778131510   10.48220626223575    1.12718771984278
H        -1.97502263803892   10.58621554979435    0.23662208712187
H        -3.15600538769317   11.41461912622862    1.25263433937545
C        -3.57974145625007    9.33171680068683    0.92941837057621
H        -4.20657591413623    9.50459944674921    0.05781316507361
H        -4.22197166262448    9.22834020971339    1.80132896328803
H        -3.04403851529332    8.39577622017736    0.78784678857446
P        -3.02295483423005    9.26764356951810    6.95370536913650
C        -5.35518064928777   10.51308152918306    6.15086349624519
H        -4.68257110823527   10.80038960232659    5.33491562031018
H        -5.87354343083948    9.59796772701377    5.85339642984143
C        -4.51114788455357   10.25359419663272    7.39520692205468
H        -4.14325348920115   11.20665837559939    7.78557398359748
H        -5.08654995894275    9.75619155572831    8.17998807448482
C        -6.19257418881424   18.04874911570676    5.69644401049518
C        -6.00682417917750   16.79906400020531    4.86889233507073
C        -7.03761492828398   20.18282199898298    6.35814014555273
C        -4.59347265293788   16.79429896887559    6.80748342322305
C        -2.78515045550082   13.10081222031548    6.02300612726850
C        -3.39804005412958   14.34955193931772    6.27300101495250
C        -4.95398063252065   16.06147406214927    5.66433069098319
C        -7.03031227827158   19.11127367478205    5.45985659845580
H        -7.67832874103102   19.13553926516375    4.59542856608787
C        -5.36153934682086   18.02348384523309    6.82793463990505
C        -6.21293474524023   20.15426343102761    7.48303215588014
H        -6.22900980686074   20.99199598048603    8.16528476768914
C        -3.68083313049810    7.60896237870603    6.49757566197784
H        -2.79891405257589    6.97820212476036    6.34649455523695
H        -4.16774566886602    7.71171150718455    5.52238274807996
C        -8.01475027773349   21.76888641641615    4.81566319778292
C        -2.26610133368096   12.02133156496934    5.82706795456894
C        -5.37899556163414   19.07850170430916    7.72615541978751
H        -4.74301354381942   19.07317111721627    8.59900062799960
C        -3.04595037216319   15.08492260217412    7.41018718662713
H        -2.29572664732444   14.68206431757195    8.07718241574852
C        -2.19313363231768    8.99363902530000    8.57244528569110
H        -1.63184493875121    8.05724921442834    8.49720654922196
H        -2.92306551621973    8.90529173602720    9.38193592598359
N        -7.86992556693026   21.28727109033908    6.11867906039386
C        -3.63736219279647   16.30265922867657    7.68326069898631
H        -3.35678984123560   16.86183670189606    8.56453859743274
C        -7.88083138752349   15.63491227749438    6.14646885845811
H        -8.80545907097867   15.07158074418099    6.03725508429191
H        -7.17284475767657   15.03231569360231    6.71110080104651
H        -8.09372084453521   16.53635660300592    6.71682440016995
C        -5.51036506672420   17.13952840129563    3.45219150754091
H        -5.35626710080196   16.20876111082685    2.90117313629650
H        -6.28651652159289   17.70946889456825    2.93592516701295
C        -4.63049522952148    6.96470731379905    7.50192273660984
H        -4.16181318294458    6.93385665379797    8.48789131423759
H        -5.54719671042259    7.55223371714212    7.58323340011494
C        -1.23025681881694   10.15361533389044    8.82628047045284
H        -1.79739446958987   11.08012433105816    8.94661931165110
H        -0.58898558175266   10.27199074117337    7.93483232654745
C        -9.23534738815167   22.28443228537471    4.37796459433395
H       -10.07556313958426   22.30858235878243    5.05657206463365
C        -6.94063789151689   21.73126281021324    3.92522277544248
H        -5.99011125506188   21.33993044586848    4.25713856912175
C        -4.36800699116887   14.84955740565127    5.39287140388059
H        -4.63616232525166   14.27536010929034    4.51657496166516
C        -8.71678884064227   23.28235073314487    7.21049323222628
H        -8.33396632666904   23.88404945656868    6.39902362103726
C        -8.53475630630733   21.89925259758983    7.18383855231234
C        -4.99307017123646    5.54127103258618    7.08052189409941
H        -5.45707401844992    5.56490881596239    6.09187059706621
H        -4.08088982609442    4.94579233364523    7.00258154037295
C        -7.31240001470098   15.98873815323682    4.77745283546792
H        -7.11683828437661   15.07132002434791    4.21774017251076
H        -8.04864385458379   16.57147491183676    4.21884721719353
C        -9.37042081594728   22.75439128178340    3.08637609864248
H       -10.32201470404609   23.14950922453967    2.76158183639868
C        -9.67017842764390   21.73975449133935    9.30153385474880
H       -10.04340214677108   21.13372766826049   10.11426669075115
C        -4.21524078763127   17.94272792351376    3.45967563114134
H        -3.90307735470085   18.16390603252573    2.44119407075539
H        -4.35082601055206   18.88215409708400    3.99095945484678
H        -3.42139201649915   17.38464471220155    3.95139593659166
C        -9.02093609593624   21.13364022287700    8.24427894761143
H        -8.88664224429753   20.06187672237961    8.22935549488093
C        -7.08873790582997   22.19434092069694    2.63295962954611
H        -6.24723280458334   22.15967071436668    1.95631079995055
C        -5.94536253054477    4.88441871965756    8.07235145794243
H        -6.18880863051668    3.87317287923925    7.75607760900535
H        -5.49282178782026    4.83465827013165    9.06042087369208
H        -6.87055859750223    5.45185349481273    8.14811025093035
C        -8.30144111636885   22.71059617411509    2.20628036966848
H        -8.41264966181921   23.07544481223829    1.19638595974735
C        -7.21263814039136   11.86715209187057    5.11638035552815
H        -7.92539986788847   12.67075633975941    5.28135133797848
H        -6.57246829620417   12.13902376850897    4.28010142479271
H        -7.76345141800913   10.96839153000557    4.84561151437202
C        -6.37383389482780   11.62860457278654    6.36536134921064
H        -5.84383094534843   12.54689653677565    6.62653164220891
H        -7.02872071552103   11.37078317671521    7.20178928330580
C        -9.85352136131485   23.11274840094806    9.31944103277757
H       -10.36433206211843   23.58281698844353   10.14614342698057
C        -9.37468514355749   23.87797658046043    8.26855534305066
H        -9.50611075336680   24.95023715161808    8.27691620880784
C        -0.35044740983813    9.93155719126409   10.05195997372440
H        -0.98112582150612    9.82820166290841   10.93888803536777
H         0.20772251544795    8.99996821331445    9.93194582759272
C         0.62521583240447   11.08452910122432   10.25333859516118
H         1.24642594394913   10.91526294574332   11.12967193774869
H         1.27318195897451   11.18691644469006    9.38557788593763
H         0.08665660946341   12.01976597554435   10.38873545732640

