177
CSD_code = GILWEE | q = 0 | S = 0 | Stoichiometry = C76H94N2P2PtS2 | MND = 4
Pt       10.87514824352280   12.49728095981699   11.35109690398822
S         6.50635046987600   14.19498525138223   -1.88173054332230
C         7.50780496845263   14.23035266887679    3.22035402119216
C         9.01019380311224   13.75614515958176    6.55953337776960
H         8.42903643127716   14.19394806573714    7.36050143063296
C         8.68438383124146   13.50149438094735    2.96605817684474
C         8.60022672054824   13.84337626024258    5.25342073034913
C         7.01162453406724   14.23421278912286    0.88166724722100
C         8.17986010345117   13.50806610227775    0.63654624698109
H         8.42491156446522   13.23578882228939   -0.38040343626739
C         6.67483075884176   14.59701689933467    2.19472364279696
H         5.76802167873034   15.15726717987774    2.36010878135305
C         7.36251469891010   14.50709466632046    4.69839955353174
C        10.88690961732729   12.82757995659016    9.38175598613970
C         6.13598110100745   14.62861291222562   -0.19132026324827
C         9.35942410605649   13.26177568687550    4.22356804939066
C         5.05497099233986   15.01880224082707   -2.35520153079923
C        10.19981964740351   13.07669597509637    6.86025433226467
C         4.41395839127427   15.54886489997471   -1.21089470872597
C         7.35675565100756   16.01973923817744    4.98630156810059
H         6.46586983187041   16.45833143597621    4.53205541966208
H         7.29171582915339   16.17132493117132    6.06636905815422
C        10.54134729597190   12.59438560979169    4.51329034542292
H        11.12925938491853   12.14694060141221    3.72477646511261
C         9.01869998990032   13.13899337071505    1.66909558763993
H         9.91955134572854   12.57893298238677    1.46693668577947
C        10.95311530645784   12.50593632501857    5.82791608358406
H        11.86996819828627   11.98871400112063    6.07679667619394
C        10.59169081407051   12.94622103109986    8.20993394964227
N         5.05463824999934   15.30361534901179   -0.03893106505133
C         6.08195736545080   13.86899998176284    5.26768127002361
H         6.03029789030655   14.08373776129469    6.33798034332609
H         5.21713574495161   14.33568940765064    4.79164016581846
C         3.22307050466142   16.25574833603629   -1.36079963786159
H         2.73556707919525   16.65942496512438   -0.48778295266043
C         8.59652242792458   16.72692763767808    4.45236699665496
H         8.54941167899824   17.78949952691269    4.68030726781569
H         8.66977214329117   16.60922697679325    3.37356539366135
H         9.49760765710802   16.31713476960814    4.90364782625361
C         4.52401660987956   15.18733404782730   -3.62173710108000
H         5.02396350218189   14.77744765133009   -4.48570211109169
C         2.70071256220549   16.41982002939094   -2.62533895692108
H         1.77834341748291   16.96631824748587   -2.75487484999819
C         6.02711039556259   12.36138047714582    5.05124750955053
H         5.11289556723006   11.95329500263114    5.47685056673668
H         6.87557734999604   11.87319966391706    5.52601234048315
H         6.04766714542216   12.12695509061278    3.98930000677043
C         3.34245496063686   15.89226131324671   -3.74443973149606
H         2.91032703307509   16.03639685549922   -4.72330903306591
P        11.63729505380745   10.38529325977814   10.97336337298213
C        13.47669279846589   10.45755061016746   10.93470339120363
H        13.91738994290112    9.48304879432281   11.15994911323016
H        13.77662991700563   10.74557333917355    9.92314580936989
C        11.21578047241486    9.58064531828420    9.37645603847065
H        11.65585417064893   10.21066879093628    8.59832782194498
H        11.66129839064871    8.58503783505642    9.31114568959975
C        11.25006456205822    9.13628751949429   12.27051817669501
H        11.68045704407049    9.54676119989893   13.18722575306202
H        10.16378348602088    9.14755444761431   12.40462475056708
C        13.93860551259143   11.51453947242056   11.93617486984265
H        13.47048936408083   12.47425754944421   11.66197615214041
H        13.57791411275592   11.25114393245481   12.93361047746881
C         9.70155465566516    9.54414106576217    9.18747244078472
H         9.25712487753557    8.79668084071109    9.84956527569838
H         9.30030474102547   10.52513173251465    9.46765813099218
C        15.45411895966242   11.67796492545503   11.97537844129453
H        15.81687264018720   11.95900854465636   10.98390707887176
H        15.91491062612600   10.72154355077131   12.23723704783634
C        15.87119963385054   12.73630203409719   12.98949663478868
H        16.95371377584629   12.83407835695646   13.02267860120110
H        15.52040461231595   12.47035211201559   13.98472303159495
H        15.44635147978823   13.70199546131718   12.72472498502487
C         9.31406488137034    9.24815217321580    7.74120011346896
H         9.78189206108060    9.99026975592283    7.09058869708204
H         9.69547024093631    8.26451235591552    7.45523596248656
C        11.73750589003159    7.71116382677528   12.03414848304520
H        12.78840064145147    7.71225860881816   11.73547042755974
H        11.16254546004332    7.25820710395757   11.22360436078103
C        11.58589375500637    6.84241444176120   13.28607853435031
H        10.55346302435788    6.89474769940836   13.63828687011310
H        11.79001740648819    5.80439328450625   13.01239133597351
C        12.52714469973176    7.24622725576998   14.41560365942597
H        12.45080038980315    6.53887215536226   15.23771313941211
H        12.28203455757564    8.23197629263327   14.80240688087529
H        13.55854665894705    7.25488403753617   14.06791630767470
C         7.80483259044433    9.29040294605648    7.53940766817544
H         7.55052063299433    9.07196671498916    6.50499251433665
H         7.42034929486867   10.27708361550103    7.78617640581556
H         7.31000426526533    8.55988694850416    8.17619700731358
S        15.24433923125513   10.79728114278661   24.58389063941209
C        14.24299216429753   10.76316609508534   19.48169496516305
C        12.74061546434690   11.23821699690243   16.14254128926066
H        13.32150169397691   10.80039611187514   15.34138099990346
C        13.06650051711014   11.49211270971538   19.73605124033075
C        13.15073241223586   11.15064101298496   17.44860074824785
C        14.73882697184504   10.75890086726525   21.82044814939126
C        13.57059962094537   11.48500797854764   22.06563682608750
H        13.32542945854347   11.75702177255288   23.08263050331151
C        15.07579620284123   10.39629610060291   20.50737424166694
H        15.98261433064997    9.83603218885425   20.34211344409875
C        14.38833212800546   10.48663613148753   18.00360894576431
C        10.86383015573524   12.16770341147281   13.32060752562455
C        15.61439317111771   10.36412510193004   22.89334561391205
C        12.39163743696984   11.73221957715913   18.47854515014787
C        16.69552457886194    9.97283536604557   25.05694003609395
C        11.55113090664088   11.91807186324271   15.84207504070742
C        17.33626255931601    9.44303031939067   23.91236818607817
C        14.39415463539513    8.97401626601833   17.71553011453361
H        15.28496155841438    8.53546363818107   18.16997139691478
H        14.45953117441411    8.82257459381113   16.63546275749185
C        11.20991784420851   12.40009689259047   18.18910070432752
H        10.62231994404983   12.84760360337773   18.97781712934464
C        12.73195479981376   11.85434609984256   21.03302594997801
H        11.83106008734197   12.41435465921770   21.23509555242654
C        10.79806617127475   12.48892590203809   16.87453903805298
H         9.88135491595836   13.00645803970345   16.62579776094867
C        11.15870482332879   12.04836394325638   14.49250401801313
N        16.69554953106096    9.68889511035707   22.74057325783455
C        15.66916148374966   11.12444720720413   17.43457018230196
H        15.72105074107794   10.90960002267173   16.36430243070344
H        16.53372397596153   10.65752678574114   17.91088520493563
C        18.52691365797712    8.73565043697283   24.06181175642250
H        19.01413475155211    8.33221809919032   23.18852931933702
C        13.15438862777518    8.26654572493681   18.24902576324167
H        13.20152942128662    7.20412889510795   18.02040826596781
H        13.08113971494365    8.38354698314500   19.32789423573541
H        12.25330922759101    8.67660226517718   17.79798206762090
C        17.22655088741905    9.80354303251666   26.32333912713264
H        16.72685764134867   10.21322719356019   27.18754236059165
C        19.04931806962067    8.57079074464658   25.32621907889350
H        19.97148196513428    8.02385875424591   25.45542340114898
C        15.72447235170666   12.63206036371272   17.65087195630501
H        16.63880297847103   13.03978082568060   17.22515046498444
H        14.87614035324194   13.12047970145967   17.17612093197584
H        15.70409512226903   12.86659128590540   18.71280376093967
C        18.40785570833386    9.09808971306198   26.44560000782815
H        18.84001043916042    8.95331753530838   27.42435942260542
P        10.11300047253295   14.61028761176159   11.72967178876887
C         8.27361429020347   14.53754709167421   11.76812078060435
H         7.83285341986564   15.51202434279132   11.54293348682669
H         7.97367239037057   14.24942684065072   12.77964322816844
C        10.53464008763476   15.41484606633681   13.32654454510596
H        10.09454290700031   14.78484013611405   14.10467488414632
H        10.08916970276197   16.41047288949026   13.39173600521832
C        10.50018030961954   15.85890049747471   10.43214935555292
H        10.06981341114933   15.44826074332515    9.51549380778930
H        11.58646339078759   15.84764485188560   10.29805609576595
C         7.81181147791286   13.48062492307325   10.76652049297182
H         8.27998158858013   12.52092744434256   11.04067325059950
H         8.17257112884135   13.74414245218967    9.76914296992088
C        12.04891447230446   15.45112319941191   13.51512295393572
H        12.49329177674043   16.19852756304290   12.85292785984355
H        12.44999960197038   14.47007063221400   13.23488454486801
C         6.29632445085467   13.31702174214925   10.72711914981036
H         5.93348825340018   13.03584640273824   11.71851790200460
H         5.83545788279030   14.27341711069849   10.46529644969301
C         5.87952463659957   12.25872251575000    9.71284322018987
H         4.79702662375262   12.16088079187160    9.67940470153901
H         6.23054279997581   12.52476183915451    8.71772314291717
H         6.30437714139200   11.29303796211494    9.97765155561932
C        12.43655392449437   15.74706001470513   14.96135098822584
H        11.96885315019462   15.00491258407942   15.61202668229658
H        12.05521857019877   16.73070381982313   15.24741071013514
C        10.01268264738615   17.28403065708956   10.66826798690389
H         8.96179506828867   17.28300762871832   10.96695553220927
H        10.58763109037987   17.73720865863958   11.47868868094049
C        10.16429783870919   18.15237370603676    9.41605948596423
H        11.19673086409995   18.09992967687487    9.06388284933222
H         9.96017567704322   19.19047480760980    9.68940083065768
C         9.22306501293169   17.74821782157704    8.28664374956983
H         9.29916177944180   18.45547150795833    7.46442358669094
H         9.46839712746357   16.76247356389106    7.89996742811210
H         8.19169896542143   17.73934599610406    8.63442287429491
C        13.94584001304879   15.70477580602032   15.16271152700667
H        14.20036289415230   15.92296322468862   16.19712254970051
H        14.33029105337186   14.71815586616403   14.91562578738653
H        14.44051862311534   16.43546653799492   14.52600007731373

