41
CSD_code = GILWIJ | q = 0 | S = 0 | Stoichiometry = C16H16Br2O6Zn | MND = 6
Zn        2.35247155164843    4.35807716647015   -0.00012375068115
O         1.12349448551761    4.01396086099241    1.40567845587995
O         3.13636179536571    5.82201900162417    1.13956582984597
O         0.82286185545406    5.67058805250345   -0.87805643144769
Br        2.03663754767118    4.32243681319604    7.32558886407596
C         2.35776769261974    4.96094092199638    3.21519312736386
C         1.36506174830845    4.09178105892048    2.65431117423682
C         0.60411542163398    3.30850908773480    3.57297362650622
C         0.80325078876326    3.38082843447751    4.92016084900351
C         1.78191294434384    4.24267561772429    5.43758829230712
C         2.54546536193688    5.01505163261989    4.61066630951823
C         3.17601315853031    5.75664421161299    2.37166665668639
C         1.02413715105822    7.06975833116624   -1.00413565509744
H         0.08005668105178    5.51541702537084   -0.28075517287570
H         3.29968767170108    5.67672620678656    5.01186557573183
H         3.91814582739289    6.38990059623135    2.89216373772087
H         0.14476074291372    7.53834556451339   -1.45529770721078
H         1.23828423438702    7.53418817410379   -0.03942686317597
H         1.88377225204262    7.20638655308118   -1.65631718567417
H        -0.14340517011425    2.64896915498206    3.15934881595447
H         0.21490176571015    2.77955774575034    5.59766708438254
O         3.58070343084596    4.70265392554101   -1.40637600386253
O         1.56852946863901    2.89423918297757   -1.14014113090995
O         3.88145725446224    3.04549663049825    0.87760526863723
Br        2.65712874434101    4.40566844561102   -7.32525816701313
C         2.34362227353426    3.75885605967541   -3.21558480605968
C         3.33704907439116    4.62722707923430   -2.65475346082117
C         4.09611592321696    5.41254843642635   -3.57321013397428
C         3.89456420946502    5.34285873033619   -4.92017970136995
C         2.91525636760859    4.48172112910617   -5.43756464489114
C         2.15346437762482    3.70741430443246   -4.61082306606182
C         1.52692790053850    2.96154302616169   -2.37208530624021
C         3.67900850932225    1.64661021758136    1.00511108430369
H         4.62378336222951    3.19944404008248    0.27939813768628
H         1.39879283945346    3.04624009783271   -5.01199937920276
H         0.78425582016641    2.32880248813719   -2.89243617721842
H         4.55862830175650    1.17751572773628    1.45526624956343
H         3.46285144307689    1.18165017257324    0.04111516302379
H         2.82026739976232    1.51134648413858    1.65874920381167
H         4.84413759973019    6.07153444586437   -3.15961336104461
H         4.48150019189806    5.94566716419507   -5.59754540140663

