49
CSD_code = GILWUV | q = 0 | S = 0 | Stoichiometry = C24H16Cl2N2O4Zn | MND = 6
Zn        2.92248727643395    8.26979919034171    4.69164328425976
O         3.92199832866389    9.57462238190004    5.70514103611457
O         1.55448828491727    8.18905500011866    6.22243052039443
N         1.87044236131599    6.63861873219173    3.89985245178495
C         2.26620076223946   10.18788231253714    7.31909246017687
C         3.49221029858354   10.37266043442524    6.59520625367165
C         4.26754888564330   11.52318526314702    6.94187167400188
C         3.88571631536995   12.39057559033917    7.92118676173109
C         2.68848806284212   12.17425761910176    8.62254941175979
C         1.89338133911918   11.10586161813681    8.32405465737933
C         1.39579270058184    9.10452299626664    7.03540009495684
C         0.73551896341494    6.74257378574587    3.23784383999181
C        -0.06849933075552    5.64707438369081    2.95655990121967
C         0.33754418580066    4.40188632065227    3.40735824850072
C         1.52983925008619    4.29635750382182    4.10395756297049
C         2.28301582331022    5.44740898995432    4.32793561804082
Cl        2.23327256471186   13.28436684406387    9.87446561362659
H         5.18355871769001   11.68037685959269    6.39237347454003
H         4.49338843760711   13.24837228594270    8.16802872727852
H         0.96883908943033   10.94471932775581    8.85944748547981
H         0.46534195323463    9.09055283725324    7.63639276073169
H         1.85322449121618    3.33999517163104    4.48235095856584
H        -0.26592103022968    3.52488461884815    3.22520935756682
H        -0.98930366892720    5.76972424598412    2.40921995059238
H         0.46661466420653    7.74215125750218    2.93026819455689
N         3.97454990098980    6.63863083621933    5.48347962978667
C         5.10946898106702    6.74261242456976    6.14549081654331
C         5.91354826095214    5.64714190221169    6.42673321054938
C         5.50756366890995    4.40195140491348    5.97587392647227
C         4.31527151975584    4.29640395982227    5.27926811062993
C         3.56203517814780    5.44742391832913    5.05534293738006
H         3.99190253848730    3.34006498733842    4.90080432417159
H         6.11106274758569    3.52495803849913    6.15796864005394
H         6.83434664369662    5.76981335145605    6.97408526943987
H         5.37827819903017    7.74221359954026    6.45307159746172
O         1.92299792955841    9.57458902429986    3.67807021996728
O         4.29051529889501    8.18898820088740    3.16088431749634
C         3.57889888087564   10.18787307245450    2.06424172753914
C         2.35284079104686   10.37264427669770    2.78804559953267
C         1.57748410187399   11.52312862446119    2.44127543840012
C         1.95937745113494   12.39052710380073    1.46198779411936
C         3.15670210681700   12.17426692391910    0.76077100762289
C         3.95181013091208   11.10589324260750    1.05935169083411
C         4.44925081965097    9.10446441317865    2.34791716271708
Cl        3.61201912026021   13.28439800416644   -0.49109180454209
H         0.66139936612072   11.68028176331346    2.99065981810854
H         1.35169838658524   13.24830223734047    1.21507969189073
H         4.87641889624789   10.94477894100532    0.52406480727034
H         5.37987035488909    9.09066417801996    1.74718376666517

