77
CSD_code = GILZIK | q = 0 | S = 0 | Stoichiometry = C34H30NiP2S10 | MND = 5
Ni        1.23903419524284    4.35120509698694    2.53472178984169
S         3.23351320835605    4.46977377260379    1.48519976145081
S         2.33493407625307    2.87330415381969    4.46319119907773
S         5.78473260594783    3.07952809578412    1.80962778510585
S         5.08958601898082    1.72986272362888    4.28988770061587
S         7.67737066606200    1.10606032290998    2.97206495414353
S         1.29547066446589    6.35133696448516    3.63596208302034
S         1.81035317072932    7.56650686027021    0.68064472697869
S         4.16241787541570    7.07648474053101    4.26639504505887
S         4.63998218066220    8.19244816528700    1.61775612067009
S         6.85737432882565    8.13660873059967    3.58362956371890
P         0.89006724148310    2.64774860675294    1.22684401278466
P        -0.73948133285311    4.05622772416924    3.30309562546169
C         4.18170388527624    3.42406523351008    2.44895543695086
C         3.87894777418664    2.81617130298122    3.61972111221082
C         6.27111015209614    1.92514784290381    3.02944201613523
C         2.73669654308189    3.99493146034605    5.84128884740270
H         1.84316034083096    4.05162659365549    6.45518719606975
H         2.98035641232622    4.97855107610234    5.45242444035690
H         3.56655240655029    3.57390202605786    6.40065832944243
C         2.79703243932327    7.03381100497301    3.14818626741994
C         3.03907065035923    7.55900051121224    1.92353907846775
C         5.31070498248797    7.81247848737566    3.18575030777493
C         2.83093650432374    7.74375378218580   -0.81002390602242
H         3.35250072776631    8.69597824961605   -0.78644556922887
H         2.14604824115382    7.71423317223096   -1.65127752412046
H         3.53242786812135    6.91597536837582   -0.86103238207816
C         2.08242442438670    1.28333036635868    1.29630456917796
C         3.12983584216579    1.24584043747694    0.37878503752540
H         3.16683615080813    1.97254461800112   -0.42163675161419
C         4.12700268754973    0.29629028347074    0.50544438269067
H         4.94259058968284    0.27759654719920   -0.20194539356847
C         4.09372292216391   -0.61274733006028    1.55078870868625
H         4.88610226141138   -1.33761569036730    1.65994055663328
C         3.05418028947035   -0.57744266902032    2.46642058846058
H         3.03347006773966   -1.27774639569143    3.28799522346326
C         2.05364546089701    0.36944063993818    2.34601057217593
H         1.26129832360835    0.41273085919472    3.07944336071758
C         0.71258467027748    2.94057597988652   -0.55330332018463
C         0.93428250753425    4.21022419719401   -1.06978870916763
H         1.23663944189360    5.00820688438682   -0.40307114708622
C         0.78474805828109    4.43861147425677   -2.42619842609642
H         0.95928250551780    5.42460172106466   -2.83037018529989
C         0.41518574671353    3.40121247988869   -3.26531112904569
H         0.30145400180988    3.57759457714072   -4.32459610120830
C         0.19675348670541    2.13170050879905   -2.75094374594352
H        -0.08492638277842    1.32332397297766   -3.40948413724669
C         0.34366010480563    1.89672486614372   -1.39732684448371
H         0.18510998508520    0.90703336268737   -0.99159627918468
C        -1.95008934356507    4.86885066161613    2.23073053975378
C        -1.44899981069633    5.63042530768918    1.18194800468445
H        -0.36899756768220    5.74817928618277    1.09391616634297
C        -2.31387654376250    6.24707766739167    0.29730095634508
H        -1.92323088416856    6.84096398688279   -0.51490804433594
C        -3.68148978357315    6.10471437561250    0.46655679163262
H        -4.36285553397964    6.58610193123431   -0.21914746250256
C        -4.18382580030836    5.35452458465252    1.52017704452362
H        -5.25159743807520    5.25682531570652    1.65055144193227
C        -3.32321517761831    4.73375998249433    2.40644650232150
H        -3.70928841496615    4.15722398527196    3.23606252904831
C        -1.24122863546471    4.47119169366359    4.98793942190012
C        -1.01883440567715    3.59360152136628    6.04565934130194
H        -0.59286669287347    2.61751556874518    5.86163573722215
C        -1.33283205803752    3.97767177054045    7.33657184599457
H        -1.16624382090199    3.29329671586654    8.15565907354242
C        -1.84960586728592    5.23994694883434    7.58142739138811
H        -2.08788768326817    5.53725579073303    8.59169003523263
C        -2.04646484929987    6.12499272882327    6.53334406665442
H        -2.43369505469112    7.11417461306648    6.72633637941724
C        -1.73803216207513    5.74794932740654    5.23998502044059
H        -1.87108394145339    6.43734489511413    4.41821536932386
C        -0.75084752290138    1.86905762098068    1.66477410497357
H        -1.47990132214705    2.27624328913095    0.95611798522542
H        -0.70858902006229    0.78420740602742    1.54115952359828
C        -1.13798322537807    2.26227213144865    3.08596310248705
H        -2.19787355057891    2.08293385342657    3.28720845321994
H        -0.54085086270032    1.70444327981377    3.81232383021331

