49
CSD_code = GIMFOY | q = 0 | S = 0 | Stoichiometry = C19H20MnN3O5S | MND = 6
Mn        2.67588163984370   -0.00794461665766    5.86996185963465
O         2.87665547459170   -0.79847183413627    8.08496632135447
O         1.03362818774841   -0.87769061415241    5.93546426458279
O         2.16305806133276    1.47233608012919    6.81057439502686
O        -1.40535685809743   -1.53285427236861    6.60817845447497
O         0.57350438951324    3.32070060890277    7.79161968654768
N         3.54260068831881   -1.58811634792934    5.30167258219792
N         4.45405064941433    0.74007542176559    5.81781267213813
N         2.33988325876295    0.54151081195515    4.12733679776025
C         3.06819037130591   -2.80152084088458    5.33337665942874
H         3.71863844793294   -3.62685273610642    5.03688946095251
C         1.74355074181365   -3.14712545177971    5.69737132058718
C         0.77586015605282   -2.13050003917494    5.98294948292878
C        -0.56150641508693   -2.55791683102896    6.31014341857298
C        -0.88596298567079   -3.89092281944266    6.33087334620832
H        -1.88730553974322   -4.21102918375002    6.57215370498579
C         0.07728824280605   -4.86626658747887    6.02918491266753
H        -0.21070130394153   -5.90605439487297    6.04578933455160
C         1.35543541138875   -4.50528160888786    5.71838618652633
H         2.09568188198286   -5.25615065804897    5.48374096265122
C         4.79505729167944    1.98485549403282    5.93317006658402
H         5.83638927963177    2.27145113641697    5.77145176836633
C         3.90537505107507    3.02270375642321    6.33513297642943
C         2.60161829784018    2.68708328539589    6.79640058730425
C         1.78175952236966    3.73588560904548    7.32198462588499
C         2.22784306584391    5.03896353416644    7.30380156395670
H         1.60134983353640    5.83872475302208    7.66615720619285
C         3.50438123689094    5.34876039854711    6.82496888788401
H         3.82894191567144    6.37786081951724    6.82916625315970
C         4.33473053114528    4.36117649098190    6.36758451828670
H         5.32674988592415    4.59830310171149    6.01299574674690
C         1.85653688978762    0.92293849212154    3.12025147909316
S         1.32121809404039    1.42987484483703    1.72403765697174
C         4.88345959582728   -1.39237356256912    4.78459811278824
H         4.80108359221660   -1.11304823867889    3.72634755641951
H         5.49217730017825   -2.30076574606129    4.87084318091620
C         5.50454974786587   -0.23017490480056    5.56452703977502
H         5.87118928007395   -0.59920985729129    6.53128352017444
H         6.34223257381819    0.21580245718794    5.01530210489133
C        -0.37126588191260    4.29456759437274    8.15677772418622
H        -0.03632729369212    4.87699142000532    9.02259660373556
H        -1.27366375995645    3.74525901482587    8.42045826982083
H        -0.59009968806594    4.97263805158388    7.32604235049341
C        -2.75652383510343   -1.82784023827964    6.84919786855274
H        -3.21599218037839   -2.33549372361373    5.99489752815709
H        -3.24498176789501   -0.86693525772730    7.00237994756804
H        -2.88168049330977   -2.44493984900668    7.74649662402808
H         2.45433144507591   -0.06273444433577    8.54941374136281
H         2.23768596955157   -1.52114851788680    8.10158866649194

