44
CSD_code = GIMHIT | q = 1 | S = 0 | Stoichiometry = C19H18AgN6(1+) | MND = 4
Ag        2.61286681492621    4.54969231915927    0.47917504912574
N         2.96528757985876    3.66711179945688    2.60034316767153
C         2.51979702946046    4.41892151309310    3.61806424601775
C         2.42435284777567    3.91951712872637    4.91639808878637
H         2.04825446364909    4.54645083163889    5.70818953721303
C         2.80371097235756    2.61360373706446    5.16620934084809
H         2.73950365437223    2.20456668381306    6.16272795378869
C         3.26721668693234    1.84226223830873    4.11066879980914
H         3.57844028172251    0.82118816883699    4.25933798647215
C         3.32477402152090    2.41374465338572    2.85084199509776
H         3.68753516547612    1.84523374686112    2.00481286814642
N         1.90787087608131    6.17244267470626    2.05392185450368
N         1.61782766893571    7.46608464560438    2.08857419088377
C         1.65977126108669    7.94159096690482    3.34742831363347
H         1.44812272087210    8.96623309766728    3.57705640723634
C         1.99125592590910    6.89322357341340    4.17235708468515
H         2.12022484250176    6.92375670582089    5.23352624090630
C         2.14544819028334    5.79128670700410    3.31064638463961
C         1.33792604973289    8.19463924599630    0.88079826229754
H         0.46842731296241    8.83599974959015    1.04600331242874
H         1.09414400569642    7.45469396993453    0.11226038053816
C         2.52652935996372    9.05562752618425    0.43617586788828
H         2.20221790355654    9.68803434780122   -0.39119505819496
H         2.83226800493674    9.70548548422980    1.25711780592453
C         3.73947795142091    8.22514085232661   -0.00035205594042
H         4.58767273885323    8.89048020776771   -0.18130517356977
H         4.01047122483642    7.50603512220307    0.77896043769960
N         3.23543037140187    6.16449447881025   -1.13489896813851
N         3.47527575914056    7.46739661336624   -1.19363814159974
C         3.39772089926847    7.92078764349152   -2.45894021576021
H         3.56683751673986    8.94887227620998   -2.70760910132412
C         3.09523093460671    6.84745897297961   -3.26269007075052
H         2.95055432183561    6.85638424556900   -4.32223825509307
C         2.99527803296905    5.75428950196819   -2.38195766698251
N         2.27965898888187    3.60951010363067   -1.62350467091851
C         2.66991821571908    4.36366379378834   -2.66183299416252
C         2.75469725250296    3.84936228952216   -3.95503317343309
H         3.08463517655980    4.47945096814114   -4.76466802638743
C         2.42395166564956    2.52531515301111   -4.17719634277709
H         2.48070898531714    2.10463478463963   -5.16921982949931
C         2.01878348078594    1.75117953734544   -3.10006931135756
H         1.74727145522382    0.71595138620038   -3.22665552430637
C         1.96718655897245    2.33876418937751   -1.84741590801536
H         1.64966482874561    1.76833636444757   -0.98477508803705

