55
CSD_code = GIMKAP | q = 0 | S = 0 | Stoichiometry = C26H18HgN4O4S2 | MND = 2
Hg        1.84368547460277    8.04296014188648   12.85731291569070
S         2.49869529630117    5.65424599098228   12.90155001714566
C         3.71483867180281    5.50155701679881   11.61618349528841
C         3.93224356077767    4.13937650224270   11.13830891135220
C         4.72025434998081    3.94398230791700   10.00119898344115
H         5.16053288224919    4.80297949942672    9.51970754913783
C         4.91252899582790    2.67322743884900    9.50088981968533
H         5.51458069781043    2.53082491049170    8.61615429103845
C         4.32578281870942    1.58228130529056   10.12348995295216
H         4.46838582742670    0.59009832532693    9.72238375879228
C         3.55000859546467    1.76631073195214   11.25564496713996
H         3.08606220267649    0.92109247453298   11.74010326122646
C         3.35282543908934    3.03555787834213   11.76203566966691
H         2.74056071678848    3.17618867947858   12.64078117461762
C         4.37349655394303    7.78662143485398   11.33959199308434
C         4.00115476611448    8.69304314103068   10.32337316322637
H         3.68301040665179    8.29444992282091    9.37250714522595
C         4.07513056354656   10.05009909858520   10.53475728846387
H         3.77509176796696   10.75328506229922    9.77187596487060
C         4.55000081953105   10.53732946021039   11.75169176518583
C         4.98853142856285    9.66583857030588   12.74681246170793
H         5.39014809468855   10.07552341226645   13.66256408486132
C         4.89084276262545    8.30232178447980   12.55557530144437
H         5.26984383795682    7.61162566919793   13.29819893188790
N         4.33878772329264    6.46248309643835   11.07715686020516
N         4.55487245638772   11.94876694317016   11.99510022367642
O         5.14032470523429   12.35320551698886   12.97780478036968
O         3.95732022691549   12.65610843799063   11.20760248083315
S         1.26687460185815   10.44551169365458   12.57413693207425
C         0.01516128989566   10.49784679173658   11.32758876236152
C        -0.47312225844049   11.84719596338545   11.04079136701866
C        -1.79519374013543   12.01378291504834   10.62740697113602
H        -2.43005759501941   11.14555093654520   10.53929603557016
C        -2.27838855130772   13.27725329184243   10.35057331718617
H        -3.30488421739974   13.40283550835554   10.03994464208577
C        -1.44849479330145   14.38163521941130   10.47104954339120
H        -1.82949009255603   15.36840284138327   10.25402793961795
C        -0.13079021555476   14.21845827829995   10.86548851661803
H         0.52208012484388   15.07356169298339   10.94892419551917
C         0.35919125712446   12.95841748769732   11.15426586727180
H         1.39254770017729   12.83536004646479   11.44205089493900
C        -0.20026120760708    8.18717668915736   10.71017075945165
C         0.72001392285359    7.68199476581873    9.76161020273043
H         1.21490776412796    8.38394130995972    9.10696263917670
C         0.91917123057496    6.32767807194781    9.63128354595340
H         1.61432928617272    5.92848315469170    8.90736855780451
C         0.21024543794394    5.44155577686418   10.44218923569671
C        -0.71263668558314    5.91260141821489   11.37379638299344
H        -1.25843867299214    5.19974412859183   11.97437028608917
C        -0.91500950111896    7.27018665956558   11.51834294299280
H        -1.66673203326579    7.64703593563545   12.19924304858944
N        -0.47851288406481    9.50728211483278   10.72160515505916
N         0.45319427410736    4.03563624012920   10.32469339438216
O         1.26415344599913    3.67128170285091    9.49444238365949
O        -0.15699953030581    3.28900461070412   11.06151926846120

