68
CSD_code = GIMLIY | q = 0 | S = 0 | Stoichiometry = C30H30CuN4PS2 | MND = 4
Cu        7.21746827343826    4.63325325673970    4.10511306399735
P         9.31842490762584    4.27548846987328    3.50364798680619
S         5.63076174757287    4.61185245409945    2.31635365326829
S         2.70753050549444    5.12983309277969    2.44555227544438
N         4.66307723858515    4.13044923354468    5.36958013574658
N         5.93045941506479    3.69805887897154    5.38308303649726
N         6.42257618795530    6.39370689559721    4.84083773898942
N         5.08579950714122    6.44399789689543    4.90929828178403
C         2.37033050459186    3.41313967221459    6.05991282150270
H         2.11939138376883    4.29368250608987    6.65251433331753
H         1.93079432182184    2.54060705253710    6.53465972528152
H         1.93219488858467    3.52962633976318    5.06858211817469
C         3.83985872308575    3.23302554541833    5.96307623354941
C         4.64174457721554    2.19735824679968    6.39610355705932
H         4.32767672147319    1.31556771144224    6.91554715533745
C         5.94579324703446    2.52956199550232    6.00431614260917
C         7.20897768534764    1.77427557601498    6.19901003176854
H         8.03165973657896    2.34205337948313    5.76663083532592
H         7.14663816844624    0.80386062507781    5.70884758500550
H         7.40119084472050    1.61056649619853    7.25836648550299
C         4.25971169364958    5.29787413222913    4.62862028937966
H         3.24030751822225    5.54571139837624    4.94037775033325
C         4.21642683727503    5.00611978988704    3.11512849945308
C         3.22238426962086    8.09664608107256    5.12676339192128
H         3.13735586171920    9.17607159313286    5.21355924507370
H         2.73265925486000    7.64001952762528    5.98765697322537
H         2.70102048687436    7.77638864103774    4.22463586076265
C         4.65607399797606    7.71973458655460    5.06328358949233
C         5.78781749263963    8.50556327872999    5.12279691448675
H         5.82720666162592    9.56791662648143    5.24876524202347
C         6.87342949079595    7.63118648366646    4.97189550293410
C         8.32500091531691    7.94365899625826    4.95121051130616
H         8.63417693557052    8.39298091688626    5.89396985666413
H         8.54853651385143    8.64550085412675    4.14924702636790
H         8.89252728832396    7.02982865793323    4.78435661113884
C         9.76955450858845    2.86850697467955    2.43984189784876
C         9.80742630266754    1.59926835362426    3.01501219515311
H         9.64020743685591    1.49133544573365    4.07870496094809
C        10.06616370349846    0.49016460511938    2.23389437863197
H        10.10249654283112   -0.49046169976033    2.68593063109840
C        10.27262663958874    0.63460359750705    0.87063270449695
H        10.47201059798479   -0.23339306537069    0.25986408000151
C        10.21482689962850    1.89134450965292    0.29213489768316
H        10.36667661415816    2.00388717916734   -0.77137517596030
C         9.95908814029914    3.00719060907797    1.06931237743843
H         9.90847100826509    3.98575725164889    0.61350983411114
C        10.47116638560424    4.09353367857441    4.90044294309184
C        10.02568293329486    4.53551999436544    6.14228540466705
H         9.02300467718632    4.93807239805313    6.22296705646682
C        10.84866578357157    4.44610510725574    7.25000757441327
H        10.49947104454258    4.79030895779738    8.21234289397731
C        12.11911613974342    3.90813712821358    7.12353577742866
H        12.76321345852342    3.83489050975335    7.98729354377861
C        12.56292132593362    3.45573674766821    5.89075079579220
H        13.55185139600812    3.03128827769845    5.79599290421621
C        11.74441673153990    3.54476291907892    4.77943327271983
H        12.08610057994602    3.18242965470342    3.81950055241552
C         9.98719862864077    5.69571596644528    2.57648440768870
C         9.09850347256094    6.32056201340375    1.70320211242473
H         8.08574968499806    5.94485244713414    1.62459591956799
C         9.50843560500581    7.40875798346819    0.95678190184347
H         8.81873079941834    7.88659249939766    0.27685450592162
C        10.80222627823047    7.88867129043957    1.08929635923485
H        11.12379608184044    8.74207166670183    0.51053287332326
C        11.68193137252717    7.27970046588297    1.96918233174167
H        12.68758301423239    7.65979976456197    2.07650857912755
C        11.28049502521176    6.18441883122365    2.71421034033709
H        11.96890738321947    5.71780104803891    3.40433470687204

