133
CSD_code = GIMQOI | q = 0 | S = 0 | Stoichiometry = C48H74HgN4Si6 | MND = 2
Hg        3.57779876937144    2.93182674540993    2.75334349622007
Si       -0.29498960069520    2.34666951713097    3.91911528861855
Si       -1.67514575480589    5.32742998127071    3.79055932493678
Si        5.67255107989213    3.13155458564740    5.81894394833313
Si        3.35909021855723   -0.09056612004500    0.58211973319968
Si        3.90428753059132    7.77019727485872   -0.43699337254508
Si        5.98907028473446    5.56919101339557    0.86116743039405
N         4.36291351241213    3.55275735568882    4.76002747842909
N         2.25036196793763    4.05134687087493    4.19386286688715
N         3.24135660389823    1.59729616347260    0.96669605239719
N         3.50832170328560    3.80552153820710    0.69106378592426
C         3.23998676372419    4.17318883999590    5.04990042036703
C         1.07481765751918    4.79652768688625    4.24728654208280
C        -0.13621624149063    4.23822411277743    4.04643512406972
C         3.07897104470717    4.93182003534514    6.30794267823360
C         3.81128128749697    6.09288229830244    6.51796182313982
H         4.49086812596214    6.43508147003945    5.75312848288036
C         3.64329814136067    6.81392582714954    7.68553190322591
H         4.20645734238219    7.72242075548965    7.84034271385971
C         2.75640099749659    6.37391029153923    8.65372755019845
H         2.63042953286558    6.93567244733278    9.56751717267334
C         2.02658017432441    5.21546445576306    8.44657070053145
H         1.33153429201590    4.87216290120063    9.19894749047325
C         2.17901115704863    4.49892742093213    7.27324583188796
H         1.60158990928657    3.60268512268759    7.09935027326651
C         1.29609296954303    6.24191958234590    4.46742271107797
C         2.14915674040572    6.94953259117046    3.62644822466703
H         2.61464359720465    6.44489797759588    2.78862407243544
C         2.39030021634351    8.29167314698473    3.85391385869091
H         3.03249315199808    8.84239880082196    3.18308431729771
C         1.81032230196128    8.93263359019853    4.93588802641534
H         2.00908734483399    9.97920752773683    5.11529259197755
C         0.71693697378345    6.89097337912357    5.55261438368720
H         0.08090507544041    6.33191323336313    6.22018337794272
C         1.10741021928566    1.26947988653404    4.65957512627347
H         1.48357219068364    1.67578166630398    5.59307688781815
H         1.95386605813022    1.18747638044601    3.97039340070552
H         0.75389787507877    0.26126324256673    4.86103947050784
C         0.97872823045266    8.22698425061467    5.78935988859511
H         0.53416612886163    8.71950676487620    6.64218724543193
C        -0.41880013682553    1.85124091432792    2.07707628418642
H        -1.11307537520747    2.48052916421944    1.53233250206352
H        -0.74480666511252    0.82211501039980    1.95998540978520
H         0.55719331950985    1.94570629696660    1.60388565414305
C        -1.83207420128338    1.79921929661731    4.92350259869097
H        -1.58978096010529    1.69942575042633    5.97748935873252
H        -2.19257247643791    0.83380252445726    4.58246138048241
H        -2.65183976989223    2.50264601288887    4.84713610005305
C        -1.31144521450415    6.98144866118698    2.90169196586153
H        -2.21566462710475    7.37919558626076    2.44937440164224
H        -0.58305490587085    6.84656911843524    2.10768604760151
H        -0.92221452210456    7.73731440169960    3.57438464591936
C        -2.57763013237778    5.65491273711266    5.45006746285395
H        -3.65396449644065    5.67849903086597    5.31024345458434
H        -2.28674497771556    6.60701419763905    5.88187378722873
H        -2.36043763017877    4.88050131336279    6.17919028563466
C        -2.93613370698670    4.45862046493659    2.64188889113090
H        -3.87768581433165    5.00028668272622    2.64498432006656
H        -3.14473389142934    3.43761298483792    2.93673174348371
H        -2.58694538221883    4.43486874137495    1.61538352660285
C         6.73729924576956    1.98772285895651    4.72798520717837
H         7.35536247447094    2.56187040730302    4.04449375704939
H         6.11636477088028    1.32048615372983    4.13200689937402
H         7.39934610116754    1.37360469886749    5.32929736013033
C         6.74415643361997    4.59502776296149    6.41568246200535
H         6.95043113444871    5.29322542553032    5.61101292534533
H         7.69776227700576    4.23563214635574    6.79019361100184
H         6.26035045508340    5.14416142447441    7.21737974812939
C         5.01161434454690    2.18906731307286    7.34306044055496
H         4.42587475870967    2.84348483920201    7.98214923677463
H         5.82106076503086    1.78159832888595    7.94007241505435
H         4.37331875465875    1.36324763306383    7.04327437812906
C         3.21406157408801    2.63728912258791    0.16322297180806
C         3.34643507532601    5.02860926823737    0.04674275044083
C         4.29080078827106    5.99046670569189    0.10968104626187
C         2.91489947898097    2.49944646973206   -1.27661816138650
C         1.67880750847731    2.01363417818577   -1.68270721351697
H         0.94519997028948    1.74774929135452   -0.93748049507492
C         1.38869158202974    1.90078415960813   -3.02957121881784
H         0.42234652366113    1.53304735760444   -3.34170212190371
C         2.33419923195700    2.25632365735191   -3.97691379871996
H         2.10843248691089    2.16063090052812   -5.02873679548069
C         3.56818385778357    2.73834839752078   -3.57405504732015
H         4.30644166971391    3.01780150214034   -4.31142323426157
C         3.85657747949151    2.87027646098800   -2.22806879180728
H         4.81158678780920    3.26059405785027   -1.90833836865813
C         2.04273242074151    5.17247608535045   -0.63469120624667
C         0.86377211083857    4.92686991974763    0.06200821342458
H         0.90487926723150    4.69021282048226    1.11811194575315
C        -0.35311713901396    4.99521836476251   -0.58989351050766
H        -1.26558747001595    4.82157692037277   -0.03952841686152
C        -0.40719891850181    5.28290701042273   -1.94327714629063
H        -1.35990258702614    5.32408091846213   -2.45085022539547
C         0.76441973635050    5.51389474601890   -2.64466834954693
H         0.72810498984768    5.72939684578267   -3.70287347767431
C         1.98197974031246    5.46560927839097   -1.99313499161971
H         2.89948645809165    5.63092423116430   -2.53535952044607
C         4.25770155529082   -0.43292213758043   -1.06657499290757
H         5.14312540918773    0.18761562802063   -1.16435856532457
H         3.61913736955904   -0.22904942115563   -1.92020541611481
H         4.57255838950190   -1.46978687711403   -1.12860105446870
C         1.65815155039479   -0.95639677011245    0.57195383429092
H         1.12327795263997   -0.77710342922599    1.49897980620285
H         1.78207594222948   -2.02961617639684    0.46574449879173
H         1.03131805316249   -0.61717278801478   -0.24656520856060
C         4.39887378766255   -0.77823880908432    2.02670744695997
H         5.44416963215737   -0.49919386514606    1.93117950009416
H         4.35087746972287   -1.86107335322707    2.07050718044370
H         4.04094247538570   -0.39327317005813    2.98024011234383
C         4.86971463427980    9.01521249445254    0.64944735859295
H         4.63331194139263    8.89398580082484    1.70073723119936
H         4.61132669678292   10.03377298390055    0.37404070471506
H         5.94341282724999    8.91383751528204    0.54790718942653
C         2.07225031056340    8.26823914084149   -0.20464755425166
H         1.67140673239482    7.86864732596026    0.72182348791389
H         1.44116149449531    7.91207786775611   -1.01110692890313
H         1.97123779652363    9.34919207729329   -0.16285093896476
C         4.43969243688528    8.08638756006125   -2.24929381828580
H         5.30169361463350    7.48349510578692   -2.51795172469238
H         4.71079714808695    9.12741991022619   -2.39701737794679
H         3.64397855619495    7.85721142447050   -2.95088487247810
C         6.52501805274243    3.72797305139433    0.87138722282665
H         7.60470405931230    3.64272215110883    0.96691754684201
H         6.23806747668441    3.21171844853000   -0.03895123402463
H         6.07713811515402    3.18570920600849    1.70893444291953
C         7.34846580435299    6.40647326633979   -0.19574034055264
H         7.10630549671959    7.42998986958284   -0.45181856470206
H         7.50262290866224    5.86832805922649   -1.12631094276859
H         8.29609467672848    6.41512522391124    0.33368668044907
C         6.06377968914464    6.13052176690101    2.68698260422571
H         5.79646964486152    7.17421020270242    2.80745554595768
H         7.05985821563635    5.99361681004943    3.09800515266367
H         5.37531393684792    5.53695674099043    3.28729056744420

