30
CSD_code = GIMVOQ | q = 1 | S = 0 | Stoichiometry = C6H18ClFeN4(1+) | MND = 5
Fe        9.48284429339149    6.25412778231557    6.18017908684148
Cl       11.02242918663640    5.15662141386975    5.56105639179141
N         8.29683082688620    8.06152402825311    5.89352358243995
N        11.01945685132133    7.88555322067117    6.91246533017233
N         8.03036862367579    6.03484659272030    7.74333889568678
N         8.34775623566396    5.73506901244161    4.16570407539279
H        11.02456193927596    8.16286280531172    7.88902360652849
H        11.96687156007111    7.60347183167931    6.68026033773826
C         9.10248330512494    9.24116698365049    6.27168302480960
H         8.94057488698359    9.44741791981188    7.33047368995088
H         8.78062851125623   10.12127631750300    5.70366606582319
H         8.44140309819774    5.63957205890022    8.58859963546341
H         7.31898972918771    5.37282803552034    7.43171557470324
C        10.59939037945430    9.00685088276457    6.06992029460978
H        10.81059183763768    8.74232055401770    5.03148335497129
H        11.13438157402281    9.93689884188233    6.30183640609523
H         7.89514364500692    4.83445781224053    4.05810345703607
H         9.10976331827573    5.75377156979609    3.49212272596014
C         7.08029645302109    8.00276313559064    6.71890326052280
H         6.33254978248513    7.40310880385085    6.20047806200560
H         6.66018715740772    9.00161440757338    6.88406368984443
C         7.39724504567864    7.32159328985734    8.04840381858405
H         8.10574456117966    7.91768490388522    8.62666636251988
H         6.47931373012273    7.21260462314500    8.63810135802025
C         7.96503122536186    8.13477900033597    4.45839932679012
H         8.88771014194928    8.36381761749356    3.92248247719472
H         7.24686893237267    8.94400704384680    4.27398733403264
C         7.40879644908007    6.82401805112380    3.89623082374149
H         6.45145295723021    6.57625862499815    4.35826176144304
H         7.22483376204130    6.96811283494968    2.82396618928669

