47
CSD_code = GIMWAC | q = 0 | S = 0 | Stoichiometry = C12H28N2O4Zn | MND = 4
Zn        4.80881939204435    3.62847543536983    4.75542129299933
O         4.96131722777125    1.68822526548113    5.47193020936547
O         3.42820132661849    2.25406385233695    4.03038244245180
O         6.19924212735932    4.99000823737105    5.48401919540060
O         4.66691811984733    5.57999463230797    4.05144812171857
N         3.17085707373796    4.23366964481080    6.11281901545728
H         2.98749482534494    5.18038661067197    5.78296998444998
H         2.40646537524815    3.65927431665338    5.76008997318307
N         6.43669446175747    3.03680311300709    3.37993406887362
H         7.18159740174393    3.65792599848123    3.69268938803784
H         6.67170032987775    2.11227075576612    3.73881292596240
C         3.98236248972491    1.39760044731437    4.75231729552633
C         3.46512385302278   -0.02572334089557    4.74261311468762
H         2.38708223673063   -0.02659780733168    4.61307165214587
H         3.74541032182973   -0.52820510779252    5.66305690630010
H         3.91250472729783   -0.54960138169982    3.90055937107528
C         5.64992970029053    5.85679059191580    4.77069156540364
C         6.18022762796518    7.27552604677856    4.79010292702921
H         5.87173259429158    7.79914816634705    3.89071716194842
H         7.26238150500951    7.26398060524023    4.87968143223766
H         5.77072688664323    7.78588336749053    5.65923979876833
C         3.14142011400764    4.22243246768143    7.58705062711688
C         4.26340802826701    5.12483114872496    8.09315582503100
H         5.21054257278947    4.80532818530080    7.66703059753032
H         4.32866414449945    5.08068191404584    9.17685432980296
H         4.08429491114780    6.15753482999947    7.79911333787712
C         1.78357408295106    4.74035315478536    8.08002919809479
H         1.61067143033402    5.75835657279565    7.73455472320943
H         1.75062886204614    4.74007143389893    9.16638813423629
H         0.97469772849881    4.10969610350056    7.71473437570228
C         3.35851242409323    2.78710024182482    8.05801650396284
H         2.54453310226998    2.14752348009297    7.72125035180655
H         3.40542033803903    2.74503484921536    9.14278731465985
H         4.28850469596771    2.40398889987595    7.64717408517683
C         6.43196689411348    2.99630563476478    1.90586180084234
C         7.81604596492609    2.57183232651168    1.39682309153587
H         8.57870967256319    3.27889406166558    1.71912177041709
H         7.82434607115363    2.53498223793890    0.31061839645030
H         8.07930840153214    1.58456053911413    1.77306115468129
C         5.37683449531347    1.98831283398388    1.45843164412010
H         5.64090084554886    0.98633970099601    1.79257794712027
H         5.29338907456914    1.97986625679282    0.37511630217249
H         4.41349522198713    2.25216781026897    1.88604762733696
C         6.08765558863596    4.39145310660689    1.39231231097192
H         5.14525933498381    4.71748176411891    1.82375170000519
H         6.00122713795671    4.38852899720976    0.30915986885705
H         6.85919925762718    5.10444199864614    1.67690913828098

