55
CSD_code = GINCEO | q = 0 | S = 0 | Stoichiometry = C18H32N4Zr | MND = 6
Zr       -0.55424926888164    3.16062699754122    9.40706069209627
N         1.04680826194014    2.93856566784163   11.06415381730063
C        -2.06033815991375    4.77772779755911    9.79701975795861
H        -2.16657993707111    5.48063303943086   10.64237806901548
N        -2.12814014307055    2.84728677752940    7.74572640494985
N        -1.47694195047855    1.88443237446120   10.76534548419964
N         0.43639378638342    1.91938069434119    8.06390657884231
C         0.85934548007986    4.85680705078818    9.00380892408389
H         0.93354570556330    5.55444787149427    8.15056625132149
C        -3.00622316515879    4.90733259677481    8.86895930606545
C         1.80496745297696    4.19522232836584   11.20440758443837
H         2.84691516188063    3.97866233709902   11.49589192284550
H         1.36797753186410    4.78829689021531   12.02087002922599
C         1.78586114459460    5.05239297282592    9.93997563971160
C        -2.99104005081641    4.03584363163340    7.61446497157877
H        -2.63127733563759    4.65183305872517    6.77752270187906
H        -4.01940304341042    3.73023118596257    7.35818347119196
C         1.93707073923137    1.81785764769904   10.74509595004656
H         1.36469065124714    0.88860729770157   10.82408479437095
H         2.75248467267013    1.77995796129292   11.49223292083854
C        -1.30512668319569    2.63893887440195    6.54999629138058
H        -0.82838893866220    3.59809014875049    6.30968623737414
H        -1.92216557572116    2.31589310625857    5.69159462607744
C         0.25519010023980    2.64319065774316   12.26307169533765
H        -0.28276678260206    3.55953670923836   12.53750367834744
H         0.90303325608048    2.33815324645596   13.10490009576661
C        -4.15620175091244    5.89779048693694    8.86394546739694
H        -5.11838138977995    5.38120222910482    8.87408816574962
H        -4.12589196510713    6.52264866590400    7.96951428102255
H        -4.10602196897576    6.54530600255673    9.73619435992078
C        -2.91803372340945    1.65059019395183    8.05063822547274
H        -2.26300460775298    0.77714897326349    7.97768476108276
H        -3.71836898605367    1.54144821575505    7.29431146944616
C         1.67036058353199    1.21725207712383    8.26480309598347
H         2.26232942576609    1.19546821921845    7.32202545935651
H         1.50766555805061    0.14756605718693    8.54796125928394
C        -0.80512154484386    1.56676798816796   11.98587856597474
H        -0.33448572206379    0.55039711346644   11.97384680449969
H        -1.50661081454606    1.54861925281786   12.85449067017694
C         2.54358063753939    1.88381576851825    9.33858554687051
H         2.70149342538660    2.92612491814270    9.04972632893398
H         3.51093656190878    1.37353306170330    9.35351161768368
C         2.87533032297333    6.10891367372030    9.94582101432717
H         3.86640822193626    5.65004550578370    9.95336867156021
H         2.79702317294792    6.74134712070669   10.83193698654191
H         2.79781012642357    6.74209780201683    9.06504285447058
C        -0.17844712395812    1.62543428663409    6.80731966304845
H        -0.57791315830145    0.58077842279118    6.75000338253226
H         0.54587899567715    1.70250318382699    5.96127314333457
C        -3.54237905747578    1.66106925686162    9.45131594059699
H        -3.78484395694400    2.68608654536749    9.74399153383589
H        -4.46585529570449    1.07570309519988    9.42497375083133
C        -2.62802308139908    1.06350200170581   10.53046578385808
H        -2.35326158866722    0.01999666852094   10.23429116510784
H        -3.23031420638700    0.96569429091435   11.46258213485181

