69
CSD_code = GINCAK | q = 0 | S = 0 | Stoichiometry = C20H42N6Zr | MND = 4
Zr       14.87602111808763   11.52856158955639    6.94506873874191
N        13.37408732421519   12.89492238977473    8.68259811244384
N        16.37359331242733   12.82911810550397    5.15449636681677
N        13.98319929452275   10.11937084661869    8.17258668618712
N        13.53418622550616   12.43632729408244    5.63362269976580
N        16.21587578263198   12.48923848718875    8.22022976258780
C        15.35441923543494   13.08750782188154    4.13475611141663
H        15.23671199807975   12.16786125780462    3.55559139407379
H        15.67897382083225   13.89129187664922    3.44775504889625
N        15.77259654694369   10.07494350476609    5.77389255449549
C        12.97381147298051   14.10965320242232    7.97193279130992
H        13.86854317676159   14.49799863717729    7.47529464428963
H        12.62484320487868   14.88886301748373    8.67610893131530
C        12.24048895852499   12.23539515287178    9.35286472193112
H        12.61041918609083   11.28019370489240    9.73109756046105
H        11.47265408883347   12.02237329473807    8.60689423967709
C        15.76161714789552   13.53696430528149    9.09753791863494
H        15.71037769439951   14.54171476735539    8.61397827224274
H        16.46684817886803   13.66225719572296    9.95115925162851
C        14.39318557215069   13.19426876651391    9.69126179949934
H        14.51285941802003   12.29755150452989   10.30497914598707
H        14.06714962744905   14.02296970584778   10.34719766557268
C        17.50985189480254   12.14822639213595    4.51087544940955
H        17.14123123409900   11.18240377503488    4.15955459370903
H        18.27299962325935   11.95682146210455    5.26748963229971
C        11.89430216837210   13.88733221447711    6.90857636569732
H        11.86036592068563   14.78142706021486    6.28068874388657
H        10.90946379692004   13.78547563653590    7.37012580840148
C        16.76927149415123   14.07107856666223    5.81923175841007
H        15.87336461320572   14.47336424118622    6.30247284389477
H        17.11361309068051   14.82522037177018    5.08606537698055
C        17.85116610783765   13.89333915882903    6.88839937564813
H        17.88416320641858   14.81172229593849    7.48027395373647
H        18.83534949264541   13.77531644518862    6.42936761471848
C        12.16569953189401   12.64016258501281    6.01274724417197
H        11.82594749461858   11.73983464767887    6.54110285545854
H        11.52079001409377   12.75745481646118    5.11224205300598
C        13.98512322881908   13.44959900828408    4.71504709467456
H        14.03365564116486   14.47287793486594    5.15833313426020
H        13.27919612198056   13.53884817432544    3.85749463592131
C        17.58379749270543   12.68214521619497    7.83343897145302
H        17.92664272619008   11.76241507519578    7.34179463191261
H        18.22802107337703   12.83749247554852    8.72863383600583
C        11.61704631925465   13.02229890458518   10.47274085924917
H        11.14808116526951   13.95934664013028   10.19962605364526
C        18.16951222955738   12.46180466925472    2.12609229953968
H        17.72047737824242   11.52163536867422    1.84974122802522
H        18.64680572105241   13.01201529796541    1.33218523881300
C        16.71101124269536    9.12815677533856    6.32600439444026
H        16.22434350638375    8.19081715968645    6.66999916763854
H        17.24009827781781    9.57235405360853    7.17686563741669
H        17.46703044213226    8.82063988287492    5.57281185140061
C        18.14137185199897   12.89956398632427    3.37125042764626
H        18.60988126892105   13.84398721478635    3.61842583424701
C        13.05096930753148    9.14805044136004    7.65330354964170
H        13.54382974047933    8.20312658600186    7.34045225028579
H        12.51812631261165    9.55992343724185    6.78862395355427
H        12.29771524804153    8.86087351468250    8.41715642848751
C        11.59626479868680   12.62264808782454   11.73088824209779
H        12.04615909082691   11.69071939916143   12.03265210392889
H        11.12520782679389   13.19745710574901   12.51097283582524
C        14.96716437583547    9.43624533285003    4.75724511899659
H        15.58173470925625    9.14032547959426    3.88000286755794
H        14.18449698098120   10.12452237031094    4.41844014048010
H        14.48234317847238    8.50429539195872    5.11501138362476
C        14.79333528851939    9.52047381083409    9.20965804749600
H        14.18102535289856    9.25081352595327   10.09682829366374
H        15.57180142589457   10.22476385850149    9.52436315812906
H        15.28378860639073    8.58003772244162    8.88329824254289

