51
CSD_code = GINHAM | q = 0 | S = 0 | Stoichiometry = C19H28FeO3 | MND = 7
Fe        0.94996770080335    0.78162412368844    8.26587678718368
O        -0.90745297360175   -0.84871281592766    6.74308091727568
O        -1.57672874799864    1.95394180072159    9.08531841949525
O         2.80216081367038   -0.97503979963136    6.88231447330693
C        -0.17186313996653   -0.20047101755869    7.34406260171561
C        -0.53359637568128    1.56159358087074    8.80542213313728
C         2.14115794514219   -0.25109868778449    7.48183916995497
C         1.45255783355494    2.42887061464432    6.84067538960383
C         2.11324958826092    2.75004521903455    8.01396335875115
C         3.61231488311391    2.77991567743331    8.05693471858216
C         4.06366878907359    4.17111231210138    7.56946372994231
C         3.49262070878016    4.58003548601841    6.20484966819420
C         2.08068998531045    5.20614712429898    6.22709205067072
C         0.98841432353151    4.42065525182751    5.48804155040146
C         0.34244375881704    3.29997003268887    6.32544751026984
C         1.97614286906314    0.71604615016902   10.32244459278217
C         1.06770835676688   -0.32183511606925   10.20421191737995
C         1.53512634868689   -1.74944376702469   10.19167031839092
C         1.65223536828134   -2.20773648518319   11.65814731520113
C         2.52159769691076   -1.29423677783585   12.53337224198372
C         1.81130336433764   -0.06011162594296   13.13211743648205
C         2.34471370928364    1.30467459807030   12.67561398798550
C         1.76210847452487    1.79996696473147   11.33695629371654
H         2.04271122333230    1.98658978396502    6.03922181314464
H         1.64935935366100    3.48908448691979    8.66323277148043
H         4.02788443627353    2.01226067706285    7.40164060073546
H         4.00300494180219    2.62048483622474    9.06305635142394
H         5.15462141566433    4.16638565915984    7.50553778902721
H         3.78513210282597    4.92032449382502    8.31374219686898
H         3.50693638558523    3.71532313205439    5.54153771884997
H         4.17983412144348    5.31308899982789    5.77612122821792
H         1.76209993802024    5.36993796374420    7.25661952409037
H         2.14126497197355    6.19111534206833    5.75859095465637
H         0.19901187730514    5.11414989178389    5.18855283465528
H         1.40755019807343    3.99177653528477    4.57559217044986
H        -0.35804896604428    2.74606280968195    5.69801295724902
H        -0.21398188014638    3.74284097828924    7.15338184779524
H         3.02562779136210    0.48374217721288   10.15633944022433
H         0.10435956211983   -0.20207890894355   10.69811054082935
H         0.83791629228058   -2.40626167320386    9.66848181997443
H         2.51078017984564   -1.82980300650913    9.70906774177156
H         2.08248683926438   -3.21203861876155   11.66315960583215
H         0.65339431982113   -2.27994709813945   12.09324209530536
H         3.39292095536666   -0.98004674463282   11.95862448699718
H         2.89570915447921   -1.90213115574870   13.36031435751211
H         1.92232533508493   -0.10108099180835   14.21813564120613
H         0.74200876073368   -0.10899658494626   12.92684724509174
H         2.10626684669207    2.04779105499320   13.44058301991906
H         3.43304324461588    1.25642777558898   12.59765988521857
H         0.69673339168073    2.00473166605154   11.45719102373556
H         2.26170592621583    2.73055367561576   11.06348575532791

