80
CSD_code = GINLUM | q = 0 | S = 0 | Stoichiometry = C39H35CuO3P2 | MND = 4
C         4.53407180660224    3.14295816756028    7.22019219335784
C         4.40413414147143    1.84507396690285    6.42920287833459
H         3.77090047077157    2.04348799741363    5.55959874643469
H         5.41121375413576    1.57636386423022    6.06871338533120
C         4.59372153573357    0.26264075683441    8.16094063874831
H         4.04296359302526   -0.58218295053075    8.57082727720100
H         4.75392937826327    1.00984030573537    8.94326145122982
H         5.57112065265233   -0.07836828957515    7.79236307420096
C         7.43734650963352    3.04111296163642    9.06622590808265
C         7.51523618862445    1.92165563852288    9.88610409359029
H         7.19042141278129    1.98000549174629   10.91554876254110
C         8.00617679239073    0.73138721466142    9.37836803030762
H         8.06653263122628   -0.13833214550221   10.01658524630789
C         8.41277104203194    0.64928885457133    8.05676950420338
H         8.79057441251767   -0.28430168070180    7.66554179531870
C         8.32484423869238    1.76129408771823    7.23291537804692
H         8.63067999629094    1.69487468174521    6.19865084487635
C         7.83359332486176    2.95184408679591    7.73235227097749
H         7.73448094407991    3.82015363269955    7.09381948606949
C         6.28739090870460    4.33819768756265   11.32726889127046
C         7.08345856171176    4.70528145105860   12.40609040144787
H         8.04566322965975    5.16826983491196   12.23768377298811
C         6.63722216176158    4.47568919701225   13.69607000939395
H         7.25684630901777    4.75965705312266   14.53474974111456
C         5.40378440580727    3.88407459142994   13.91486455244190
H         5.06229074998938    3.70914583831107   14.92486191869513
C         4.60670564237860    3.52051599855061   12.84006919162595
H         3.64262331449071    3.06455633147423   13.01042249679176
C         5.04193821882489    3.75162835726269   11.54923943204813
H         4.42701093555951    3.48890277549573   10.69823187305170
C         8.19367013006985    5.71117141674251    9.72408799462413
C         7.93972186630086    7.05462145192971    9.99296247129477
H         6.91600747324418    7.38127737948058   10.12496523798048
C         8.97814786545686    7.96033654974112   10.08188621278767
H         8.76944247307596    8.99947347248239   10.29063445351083
C        10.28313093708308    7.53303780124870    9.89181142667875
H        11.09820226271361    8.23870881618138    9.95605430484697
C        10.54130615072381    6.20059221763095    9.61475023511920
H        11.55848691892535    5.86827030061255    9.46547031469534
C         9.50340165123118    5.28917909061128    9.52837487308899
H         9.71000206020684    4.25047481940710    9.31239262833197
C         2.96594013964956    7.20171425940779   10.25493688897055
C         1.62512076688556    7.48510192683948   10.48552208301322
H         0.96001071405122    7.66928487698410    9.65353706628220
C         1.14623464511453    7.53005651399060   11.78381096483873
H         0.10418026938516    7.75313217887369   11.96165999558260
C         1.99339819920997    7.28698403018265   12.85203436748801
H         1.61134132101431    7.31937997726581   13.86164442638814
C         3.32998952146344    6.99399171380723   12.62568219868936
H         3.99226619288380    6.79215908222459   13.45473915290856
C         3.81131942718458    6.94756034922795   11.33310241314423
H         4.84839374258347    6.70180263409515   11.13974804150080
C         2.33751017324779    7.46836931198594    7.48613135132737
C         2.05952985309831    8.76293832910550    7.06215548855322
H         2.67318823746010    9.58642693578406    7.39993056830792
C         0.99636078491182    8.98755960756850    6.20554432991427
H         0.77775808163280    9.99251894686028    5.87434598522406
C         0.21363051388661    7.93010286982311    5.77011083125950
H        -0.61409250519335    8.11364821361361    5.10092026454948
C         0.49583440179741    6.63722733986735    6.18334074727545
H        -0.10951770672036    5.81318112564547    5.83548938762863
C         1.56001930171787    6.40447227203028    7.03381891288440
H         1.80901764311410    5.40031227448164    7.35397793315087
C         4.81246042660967    8.47381938588634    8.51908464301725
C         5.87320570616281    8.38398757778377    7.62111836633737
H         5.97733260682105    7.48217827897223    7.02948984430211
C         6.78067420035443    9.42007500162708    7.51026363269896
H         7.60467919853096    9.34623050868647    6.81632930194733
C         6.63783267013668   10.54864051142088    8.30252160035024
H         7.34917443645459   11.35761788411970    8.22280658567460
C         5.58771973427027   10.63928403241213    9.20195279842098
H         5.48084026966931   11.51873598159691    9.82058151946801
C         4.67362396456199    9.60623769328369    9.31406104965614
H         3.85793723230311    9.67314535418525   10.02085433291549
O         5.07434624200278    4.11388490924439    6.63459190008567
O         4.12531387288688    3.23343109576827    8.39450613750259
O         3.80971680568837    0.77045215200195    7.10979227437589
P         6.72984959115377    4.63170567728999    9.58567347634888
P         3.70758616439758    7.03107097595114    8.60150985586467
Cu        4.91040610577272    5.21251913461921    8.32575588327527

