100
CSD_code = GINMEX | q = 0 | S = 0 | Stoichiometry = C45H47CuO5P2 | MND = 4
C        10.68507594624405    2.94283407794076    7.58436964494528
C        10.76575376896913    2.50871500132808    6.11854379427909
C         9.35987513978552    2.20977806721409    5.60134313820320
H         8.70986057567162    3.05097674171559    5.82695643662506
H         8.96911294789740    1.31451855222366    6.07840538803344
H         9.39703146842212    2.06667772089156    4.52470027506925
C        11.67075851832504    1.28403634727196    5.97088230173253
H        12.66565845254377    1.49450616399417    6.35466324975787
H        11.74335985298343    1.01147671186971    4.92052898244652
H        11.25916438910984    0.45237159115986    6.53727557979821
C        12.33535017242705    4.33669823502049    5.80113581340503
H        12.85467760687236    4.72430583589731    4.91887713743566
H        13.03320204207488    3.71591055499406    6.37223500995909
C        11.90268230856522    5.54789765253285    6.63954314061063
H        10.95018580823218    5.91671859491980    6.23444902918930
H        11.74223056133332    5.27417980120740    7.69347968038887
C        12.67736056527976    7.67096797550690    7.33085057578805
H        13.64124638090519    8.17831212271883    7.41509948369636
H        12.32857478709815    7.38362004879081    8.33413645552021
C        11.67324453572136    8.65562188434238    6.72091159168610
H        10.87740560140268    8.10891860773703    6.19456206192336
H        11.20495167132977    9.24583290181669    7.52686913361624
C        11.48801218458058   10.38501175546438    5.15117508660756
H        12.11170563586658   10.99261888482231    4.49900991986320
H        10.94847021518576   11.03579694601719    5.85257425751228
H        10.75348539553556    9.83722516133405    4.54709783753134
C         8.56031604282502    0.75016609716968   10.25614275892973
C         7.92714495982426    0.84360013398541    9.01696919857238
H         7.76399415163771    1.82214238115580    8.58362219102198
C         7.53163408298645   -0.30162616663053    8.35475857290177
H         7.03591057030950   -0.22956942286619    7.39728266268943
C         7.77821198244009   -1.54573872656309    8.91648627393805
H         7.47242073119187   -2.44204442387802    8.39704033621157
C         8.42460875185099   -1.64076816052497   10.13769203140791
H         8.62277094963826   -2.61140870339978   10.56918041997347
C         8.82220596238430   -0.49759832719843   10.80944999665630
H         9.33216807163209   -0.57186070984124   11.76018433694740
C         7.51894210903280    3.13131079469224   11.35539112060991
C         6.36170413983435    2.43041558796320   11.68036993578507
H         6.37402785870872    1.34900539892722   11.69919497250794
C         5.19844950769110    3.12151043180627   11.96798416409676
H         4.30007051474207    2.57757925082500   12.22195187464515
C         5.18049758552569    4.50704500397366   11.92958874460031
H         4.26825552570735    5.03962026320079   12.15495049770998
C         6.32671714722743    5.20799350660861   11.59080254881803
H         6.31149589476482    6.28737820539513   11.54601699620234
C         7.49074385258971    4.52094970294702   11.30046809540525
H         8.39006671715641    5.05045163502903   11.00766982420911
C         9.74965397042942    1.85281037396973   12.61384086926023
C         8.98884194993345    1.77680522629846   13.77321161540968
H         7.93024829331797    1.99151898923701   13.74184099915877
C         9.59337382627888    1.42884788730748   14.96837581270609
H         9.00088007430186    1.36663303229628   15.86986883080697
C        10.95122138827344    1.16005664593871   15.01400671529390
H        11.41560752478621    0.88837204121961   15.95044710253655
C        11.71585524409706    1.24594588295686   13.86128921385257
H        12.77634249526252    1.04554730130501   13.89808312126410
C        11.11833406222132    1.59805686797343   12.66705983435610
H        11.70002227134180    1.68677917152126   11.75665938768763
C        10.76883520093401    6.85078773616410   10.78774708211937
C         9.91463845615782    7.04474093453529    9.70425762016526
H         9.79905483410599    6.25258828520301    8.97412480173086
C         9.20819610426491    8.22701727006462    9.57967261836837
H         8.54535896287246    8.37285969107903    8.73951292221325
C         9.34453184720841    9.21733078347706   10.53930227972374
H         8.79381866194555   10.14177094475252   10.44444847236104
C        10.17623065838835    9.01848495020997   11.62993610901225
H        10.26969987792254    9.78635846449347   12.38422287182022
C        10.88638098235705    7.83851127092568   11.76024044857551
H        11.51772768126786    7.67585161763460   12.62302079157982
C        11.90159181186741    4.99482250986431   12.61377410473819
C        10.76694425121526    4.96778913243552   13.42307282808607
H         9.80022456567334    5.18927016803563   12.99004937144162
C        10.87613556687240    4.66443161109733   14.76513187173179
H         9.99387457495447    4.65326593103007   15.38801354751108
C        12.11555381993007    4.36628210625755   15.30969270109914
H        12.20038870262966    4.12720354810926   16.35926265716973
C        13.24259098421536    4.36887275327045   14.50563616755960
H        14.20781732708441    4.12971704945045   14.92797926980643
C        13.13959113608083    4.67620969993136   13.16070494352205
H        14.01942090866296    4.67369618777769   12.53243806595067
C        13.34272064356604    5.70367835312431   10.25609271923604
C        13.98448276368278    6.89367110264209   10.58374638831683
H        13.49861232202395    7.61287468636201   11.22769383435536
C        15.24085444003286    7.15575171972715   10.06992864904972
H        15.73946208482382    8.08106006926922   10.32003047544796
C        15.85739254786833    6.24100137129512    9.23041679227507
H        16.83419425563623    6.45830243556630    8.82441317213585
C        15.22129645021883    5.05459433821441    8.90573626521619
H        15.70053742938975    4.34597594368454    8.24708849594404
C        13.96534415809218    4.78368769590815    9.41694038500462
H        13.44701201995935    3.86646100469930    9.16399803955270
O         9.77123062397345    3.71559851308764    7.94823450627055
O        11.55288388976738    2.53792928786827    8.39302580486237
O        11.24815716591705    3.59296737441044    5.31182111166489
O        12.91856837931084    6.52463931056525    6.55917125233222
O        12.34828784434768    9.50925808695630    5.82950554927576
P         9.10834013019554    2.32567759842906   10.97621766703485
P        11.66827784805436    5.26599139309754   10.83182398291924
Cu       10.59826334505553    3.59346195698492    9.85681730057285

