103
CSD_code = GINQUQ | q = 0 | S = 0 | Stoichiometry = C46H41F6N5O4Ru | MND = 6
Ru        6.16045193510557    8.91891743030567   23.62056016041103
N         5.48372465617468    6.41217672242637   22.02386482392895
N         6.66500010914592    7.77428626993748   20.85026118770150
N         4.42270045025920    7.55568428943459   25.72550699995094
N         6.43009288597211   11.10288747905400   25.77196689224269
N         8.05807712729304   11.09550108550310   22.65094143497338
O         4.42071471128506    9.90361164186834   22.70727046748529
O         5.18339396454845   11.97401066812596   23.08130630192683
O         7.88169548528187    7.79910362364065   24.40395929407453
O         7.33260579539636    8.19865526459916   26.53596510861380
F         2.26858357454781   12.32662573039402   22.78308577600017
F         2.38899915407300   10.72901033673661   21.34306254668698
F         3.41676869079679   12.58389392435516   20.97651255668682
F        10.04238310209166    7.40833371724105   26.93380556541216
F         9.96660998653199    6.41018554241264   25.02683734426758
F         8.78702445739226    5.67518189550835   26.67058426860038
C         6.10754396400959    7.58711351156502   22.04448442831422
C         5.61688763932083    5.69840441839418   20.75540753898361
H         4.63065336822168    5.47128583825477   20.34101250754968
H         6.14658098728220    4.75305800681250   20.90930388310348
C         6.40787476151562    6.68934862259827   19.90554051035109
H         7.35008146178021    6.27804494601488   19.53208860285391
H         5.83719218722558    7.06360487045237   19.04999590570781
C         4.76015386264050    5.78625013795672   23.07228003882777
C         3.38345333188953    6.00239920267811   23.17127084732925
C         2.67600953494429    5.31553015595066   24.14638038296026
H         1.60994383253795    5.47145536770342   24.23047028973679
C         3.30657314328416    4.44164586446144   25.01999594691456
C         4.67867064447430    4.26112856347715   24.91120407010464
H         5.18029278322196    3.59532085882070   25.59854795588862
C         5.42177722830162    4.91547345172830   23.94116926263811
C         7.44937193537373    8.87375891279652   20.41447491779423
C         6.84073175485786    9.93303920095470   19.73778143560280
C         7.63996135526796   10.96796912099276   19.27735447717054
H         7.17885016215933   11.80239153319245   18.76896226320630
C         9.01647246846200   10.95766895309270   19.45568432820109
C         9.59613896963681    9.88748140618894   20.12163939598272
H        10.66665708379410    9.87187155573286   20.26886511158007
C         8.83226686861038    8.84071914680821   20.61469050749591
C         4.38763547967396   11.15451404503892   22.66669998807900
C         3.09928026802474   11.69971965090211   21.93772342523243
C         8.00515770942924    7.71458647941352   25.64896686697865
C         9.21913997216844    6.80019908134678   26.07034490479245
C         5.00457253629507    7.91978234916360   24.78109956386470
C         3.83220389839573    7.05404112726672   26.83618163258502
C         2.45389429508155    7.16516282660765   27.00323630560110
H         1.86456114632517    7.65662628558044   26.24424714599200
C         1.86800897790714    6.64577264918324   28.14136493952968
H         0.80002543137057    6.72845009604900   28.27860551810824
C         2.64430495274026    6.02284741492178   29.10605515785332
H         2.17948640385416    5.61783413737074   29.99240491445566
C         4.01720544326836    5.92455624285583   28.93716600171553
H         4.62165967652844    5.44654221193990   29.69349831942129
C         4.62113843417208    6.43835566916786   27.80618992164643
H         5.68907062767549    6.38867650281304   27.66172385826271
C         6.26087345734714   10.22935332157373   25.02061933296794
C         6.62310476123756   12.19410353645465   26.55333291415043
C         6.98398638781754   12.03811050657026   27.88889051037748
H         7.10281926485051   11.04384748112502   28.29176965391281
C         7.18611847152352   13.16502135505934   28.66307984187128
H         7.46661420164986   13.05768728696123   29.70021434893026
C         7.03083435975933   14.42853608458313   28.11386411848241
H         7.19049013514852   15.30372213371318   28.72583414309516
C         6.67062327587482   14.57301233369189   26.78234819275243
H         6.54980055918744   15.55898660880741   26.35922695728578
C         6.46381164085715   13.45977189814587   25.99128984827692
H         6.17595930570526   13.53863561862198   24.95401879028694
C         7.36041303684380   10.16971201221767   22.80055529581938
C         8.72053845567074   12.25254743331648   22.41250105172159
C         7.99137394204851   13.39439446727268   22.08388526358682
H         6.91529756220410   13.33056000855706   22.03688557951041
C         8.66523216670211   14.57589454262987   21.84432828874927
H         8.10828603332877   15.46518241704472   21.58925347743248
C        10.04848435105516   14.62515314906373   21.93160433655260
H        10.56828278073198   15.55218952286347   21.74148359205618
C        10.76502662127969   13.48729710741219   22.26777138788832
H        11.84152501708518   13.52985778826962   22.34213495027680
C        10.10879059287049   12.29605973069324   22.51104655618698
H        10.65137113203535   11.40223385271578   22.77849477714699
C         2.70535042237637    6.98929464320177   22.27255078684210
H         3.17798466692179    7.96830948684047   22.37143287727311
H         1.65429063447208    7.08454752836808   22.53062420512490
H         2.77398676485654    6.68891927046660   21.22763352329762
C         2.53188986296504    3.69818949259195   26.06396400926035
H         2.45354020850259    2.64552092113024   25.79216335228049
H         1.52851029314332    4.10245107065714   26.16778734103002
H         3.03488818426007    3.75898937849260   27.02701790663591
C         6.90011320219907    4.69966093867056   23.83381625663094
H         7.13043452944568    3.99256393661062   23.03565074180855
H         7.29258688223737    4.29495627422929   24.76301222833847
H         7.41019316749797    5.63744960520231   23.61654977759464
C         5.35993256716536    9.95665500598021   19.51249345072112
H         5.10387755095993    9.41840285564686   18.59843657528353
H         5.01049489763531   10.98030266983687   19.40325401988961
H         4.83196441496627    9.49155133133825   20.34351053821598
C         9.84868655709408   12.08829803853387   18.93402259616509
H        10.87920105796536   12.00159529022601   19.26787672733651
H         9.45023855409722   13.04157190989101   19.27697881348769
H         9.83608556448323   12.09275510435210   17.84440075009170
C         9.45846483130303    7.72352255696912   21.38994298268732
H        10.53386418244986    7.86059117387059   21.46167850679164
H         9.26588127463172    6.75797804283678   20.92420518731869
H         9.04427154752444    7.69635723779668   22.39975983494616

