73
CSD_code = GINQID | q = 0 | S = 0 | Stoichiometry = C27H40N2PSi2Ta | MND = 6
Ta       10.01111652788089    2.80462386074590    9.03856640511346
P        10.84190468782378    5.52344082959666    9.47531904010718
Si       11.34202388252281    4.74118628547144    6.55862133296878
Si        7.88608006522908    5.36459731822813   10.22011412386853
N        10.96022451054939    3.15178669782473    7.08432891324240
N         8.27977320932566    4.03765748507687    9.18401632237812
C        10.43717702949998    5.94569549879024    7.74434189046525
C         9.50034682802607    6.39517192642842   10.38009340153675
C        10.76543905917506    5.20269188037295    4.78944308598191
C        13.23740409715345    5.02849044302865    6.62628785234054
C         6.54756203352346    6.46489958631440    9.41136232471691
C         7.34361554331795    4.90526246408561   12.00107423976437
C        12.26917680759032    6.59030430072912    9.90758858914910
C        12.92532409798216    7.46137072301934    9.04855143808037
C        14.00612091572851    8.20128572835329    9.49796960765873
C        14.44723351220144    8.07610869228336   10.80375878813858
C        13.80791919284991    7.19768066430373   11.66460514766105
C        12.73324415031353    6.45638179952948   11.21498165113842
C        11.37151252218742    2.11280143335508    6.24868183400789
C        10.73002164313298    1.86163593516367    5.03338698745662
C        11.12121758635026    0.80923034714463    4.22889927895647
C        12.16707258053196   -0.01394384606245    4.60982426371181
C        12.81588631195730    0.22680793048519    5.80991344772528
C        12.42710907385086    1.27571713048262    6.61979715431681
C         7.26281705152706    3.46137494044908    8.43048431607201
C         7.45006673760766    3.23592731062115    7.05985539399173
C         6.45491322554808    2.65827702530419    6.29572560740342
C         5.24713327328983    2.29621462653531    6.86927726388659
C         5.04384440825468    2.52447819129184    8.22023572394832
C         6.03424071168635    3.09953199772017    8.99169482711617
C         9.42797282213919    0.76563691522522    8.14623186804426
C         9.37722079782166    1.78759601640288   10.99164010415709
C        12.10224157430989    2.58086432047483    9.97093372353072
H         9.36131711396811    5.79727176474787    7.64570798530364
H        10.64963229802737    6.99217177575602    7.53196953709445
H         9.79081917164839    6.48152508278806   11.42583663433381
H         9.39342946284335    7.40326409020335    9.97787606698541
H        11.03228964640998    6.22680238466068    4.54808229000499
H        11.24691925044489    4.55987588032764    4.06098464207893
H         9.69169959369662    5.10631085873832    4.65900580794251
H        13.60851149569097    5.03383371441148    7.64762121852346
H        13.74810804013300    4.23161326695471    6.09405531969592
H        13.52673287875990    5.96644474966981    6.16341454088112
H         6.27067409200095    7.28498669976482   10.06527787657108
H         6.88389559130864    6.88929884250018    8.47002429029170
H         5.65242991276468    5.88800888550930    9.20576369343368
H         7.38290074201065    5.77560326886268   12.64911812925633
H         6.32494772762815    4.53213806880483   12.02483412800739
H         7.98281102984893    4.14114648321582   12.43261889311585
H        12.60329284046214    7.56514947663337    8.02425759737918
H        14.50830494208701    8.87829643123165    8.82187451779989
H        15.29092116738517    8.65511347443678   11.14890354326726
H        14.15474429307759    7.08874431312687   12.68194006965425
H        12.23847588419343    5.75612836564003   11.87638481249362
H         9.90759172386565    2.49454673579804    4.73594440229086
H        10.60504019136516    0.62960211738995    3.29623171550853
H        12.47299176977903   -0.83453235343346    3.97817459563172
H        13.63584196996816   -0.40810579330191    6.11489045515889
H        12.93648867165674    1.46553227274625    7.55271755823077
H         8.37973000011711    3.54457076494302    6.59741264888676
H         6.62059709591562    2.49336226254754    5.24053498587408
H         4.47112572409891    1.84479069010056    6.26996768605875
H         4.10438894790205    2.24999802459525    8.67851124398768
H         5.87624543625796    3.26787281000261   10.04603306716341
H         8.54395791673448    0.35674381295542    8.63425769043475
H         9.19992827229206    0.83685426856774    7.08431796807248
H        10.22034210904697    0.02394609378859    8.24839154040035
H         9.61699047046303    2.41995495307561   11.85085328485398
H         8.29842232976020    1.62083598412870   11.01835472300882
H         9.84090260704764    0.81948410999840   11.18628378429489
H        12.42116393966489    1.53671926191910   10.00050957708454
H        12.85612838852218    3.13836403603762    9.41406565048268
H        12.13830879030808    2.94714561135263   10.99788987978963

