40
CSD_code = GINROK | q = 1 | S = 0 | Stoichiometry = C9H22Cl2O6Y(1+) | MND = 8
Y         6.53920163121856   -1.67613873372197    3.09019209834571
Cl        5.31893731404182    0.30617170495009    2.36160618075600
Cl        5.21598012480625   -3.08008925593668    1.65107468370518
O         7.96831901551331   -1.23738289341996    1.00865855523777
O         8.36967102414765    0.13766652521258    3.32103279652003
O         8.54984958240127   -2.18687361237119    4.78824189654623
O         8.21689922808161   -3.53541980656620    2.42827641219686
O         5.65341626490405   -3.18385381397530    4.92243413839400
O         5.84147433488298   -0.28786350911439    5.19209137666302
C         8.99613994186340   -0.24434876745456    1.00328897567549
C         8.61844284190393    0.78498925991358    2.07357474409516
C         9.52004906889340   -0.04251685459966    4.14134188752192
C         9.10220864266194   -0.97139171589692    5.28517818303542
C         9.51855216319820   -3.17902473152004    4.44259725831126
C         8.82049422671353   -4.19461245962483    3.53153566622068
C         9.04142767074840   -3.40161572405851    1.27020925362955
C         8.30475952743574   -2.44330987668695    0.32656099158602
C         4.68430241625868   -4.23910612702080    4.79095924366905
H         5.87867865067962   -3.12398875758034    5.86309679292988
H         5.00656396786013   -0.40919034762129    5.66728243526631
H         5.69972111763128    0.51227488499805    4.64395071182000
H         9.97068482485492   -0.69900041114048    1.22586453858544
H         9.04608899308572    0.23778200519830    0.01955293480115
H         7.66698340678576    1.25344811339514    1.80052439006829
H         9.39502304422198    1.54811797997914    2.17522449421697
H        10.34556801464346   -0.47976384728773    3.56459090820016
H         9.84937254375146    0.92156223677341    4.54800561908067
H         8.29088341508414   -0.49643262938790    5.84393433806878
H         9.94748765300775   -1.17056590286914    5.95107067941655
H        10.36755384426243   -2.72307618231000    3.91968669593584
H         9.88868027556451   -3.67180046831701    5.35006015784831
H         7.99726221617115   -4.66556751960690    4.07721098378149
H         9.52472214313027   -4.96299086881941    3.19891783333437
H        10.02850327930195   -3.00365132360069    1.54314699274859
H         9.17225477827741   -4.37678171170674    0.78649211073604
H         7.34698854365500   -2.89306766820906    0.04204440763039
H         8.90022799035573   -2.23657148329053   -0.56754180967111
H         4.45799290404147   -4.33203117539801    3.72897112379189
H         3.77216602562336   -3.99280981230909    5.33833233587207
H         5.09196734833682   -5.18187471899445    5.16152698342748

