83
CSD_code = GINSUS | q = 0 | S = 0 | Stoichiometry = C32H44BNNiO2P2 | MND = 4
Ni        5.50201400178429    8.36535805199966    4.65347390201205
P         6.94799962841757    9.87289090327510    4.24042397744641
C         6.12850931783452   10.77531040199573    2.89770760226132
C         6.48624541416372   12.03115905384996    2.43457859362525
C         5.73183246397914   12.67621770665199    1.46729325147569
C         6.12240289361393   14.02514994495506    0.93965810664082
C         4.57476566890739   12.04483307027494    1.01375551324204
C         4.20862422871845   10.79359290038792    1.45371875561069
C         5.00064104607707   10.09191840506863    2.38093804854448
N         4.72032868542420    8.85837498388035    2.88608808817586
C         3.93714920418860    7.94226847091316    2.25164051421277
C         3.70473182188806    7.88731767409103    0.86506623282188
C         2.90428819017701    6.91013074339647    0.31965232305961
C         2.29746548595736    5.93106274301962    1.10484462253971
C         1.40215532146379    4.90051134126421    0.48276556277237
C         2.57290585751010    5.92603903185981    2.46306716308785
C         3.38489723731790    6.89534619111919    3.02950314333622
P         3.92685299862817    6.93742991834162    4.75953036749977
C         7.55304818659145   11.19588643396773    5.39393477996533
C         8.54679239642343   10.65245881617493    6.41373104972955
C         6.31270496803009   11.76189960258441    6.08149295433349
C         8.46339505318631    9.08857510990502    3.49589625049218
C         9.30202095878569   10.04459177195101    2.65846605618180
C         7.95798938717755    7.90006640176309    2.67909304675544
C         4.07022008495501    5.15224854447914    5.24875436380091
C         5.30599591189048    4.61398472630956    4.53134522470196
C         4.19412680585248    4.98251243647777    6.75817515458231
C         2.50863502680567    7.64342164671002    5.73663785704840
C         2.51169424612464    9.14376373244787    5.44667919046166
C         1.16465747676262    7.00085718462395    5.42131918253992
B         6.23573877820766    7.90812070906155    6.34340581314824
O         7.30839704105056    7.03851710866791    6.57872380123569
C         7.50239433579797    7.00863558682535    7.92127702403870
C         8.43181412579083    6.30819292719368    8.66181404063870
C         8.39461647868216    6.47724219274860   10.03896670266485
C         7.46600811404263    7.31189123682640   10.64425336176057
C         6.52910992344449    8.01680810825972    9.90149681288191
C         6.56351706576218    7.84975386200891    8.53266092355360
O         5.78187083272246    8.40426091220697    7.57269086790100
H         7.36041862382069   12.52623892440930    2.83489461791644
H         6.94746069721302   14.44252402435450    1.51261918758761
H         6.43237604047874   13.95109543851135   -0.10361475363396
H         5.28090774225924   14.71552997798771    0.98722442227109
H         3.94121276366771   12.55941868498616    0.30378633963503
H         3.27630276896988   10.36532066980710    1.11671661565231
H         4.19765078575367    8.59327433564354    0.21325609878974
H         2.74958087068998    6.89309586949709   -0.75086887174088
H         0.48976876118337    5.36495353515720    0.10670743192492
H         1.89854038809984    4.41674600881308   -0.35789604824093
H         1.12478879993617    4.13841093756561    1.20756625316698
H         2.15115446020870    5.14533112106252    3.08126335693264
H         8.03613848086759   11.98260296834643    4.80415638488416
H         8.77796561138854   11.41739202564463    7.15412408025151
H         9.47731564935048   10.34753002164642    5.93973328757439
H         8.12628127938954    9.79491462226351    6.93440283969152
H         5.81575580983208   10.97159427846689    6.64575028539969
H         6.57767663472419   12.56629319913206    6.76584733951361
H         5.61216506160807   12.14978571988359    5.34235896409693
H         9.05455493396389    8.70518178430932    4.33587617715007
H         9.68396289190879   10.86641768825765    3.26102663367660
H        10.15137201202757    9.51625577509780    2.22730257611014
H         8.70718423915438   10.45701506773958    1.84559500997329
H         8.78226404857730    7.27281235374570    2.34329087115809
H         7.28146378516048    7.29262938556494    3.29776381888496
H         7.40663743968991    8.24701452680835    1.80612552964435
H         3.18065750319268    4.61824862576032    4.89726670322651
H         5.45316148282863    3.55656562229298    4.74512256695803
H         5.20510034214316    4.74091840172017    3.45369967031765
H         6.18782225099142    5.16440758866158    4.86252007406514
H         5.00671093443882    5.59479979223087    7.14324753202640
H         3.27543609757580    5.26525003521393    7.26769518207735
H         4.41021912302033    3.94262165102995    7.00034957885817
H         2.75920404795118    7.49431115463415    6.79350642231527
H         2.22177249193407    9.33073969999752    4.41348055200724
H         3.52437876532431    9.54353257628079    5.60067507768249
H         1.82303455412019    9.67395910641647    6.10263884238109
H         0.92872748506927    7.11615368900641    4.36505515637591
H         1.16816872944434    5.93964490479215    5.66263781179459
H         0.37683971801849    7.47869322091466    6.00221376357936
H         9.15170989356110    5.66084005987513    8.18747738118748
H         9.10657546336774    5.94582184554632   10.65230055697946
H         7.47081363002485    7.41694509819931   11.71867542098057
H         5.80581024298576    8.66676738958843   10.36700903226713

