67
CSD_code = GINTIG | q = 1 | S = 0 | Stoichiometry = C35H28NOPRe(1+) | MND = 8
Re        2.32246130496323    0.76579044186874    5.05748087020174
P         1.25672555666837    0.53479600638752    2.84507878193216
O        -0.07281456440731    1.74379257558121    6.40838519787968
N         0.86055279071823    1.31296793779460    5.86037630970821
C         1.95872350752064   -1.11679645606150    5.45476526583718
C         1.81673217432368   -2.37500753230858    5.74080632377646
C         2.15091556563413   -3.02062761718504    7.00826816778644
C         2.58418121613206   -2.22549520849290    8.05293843506524
C         2.92124939077471   -2.77659771033054    9.28853096780926
C         2.82570155069625   -4.12910468194182    9.48194632468078
C         1.84583952688413   -7.19751088290981    7.65459220948634
C         2.27791844002604   -6.37063889970848    8.65182921922221
C         1.49932248998441   -6.66102334333217    6.40654251616120
C         1.59278148766865   -5.31564561314255    6.17659109420433
C         2.03345864362233   -4.42924152509932    7.18027932618496
C         2.38265181127226   -4.97781044847785    8.44783386282111
C         4.63539539889512    0.68517032448532    5.53159635002690
C         4.48977328696143    0.88869341357189    4.14701815980970
C         3.86546957553899    2.15967373763287    3.95349392936710
C         3.60673428029719    2.71990559708187    5.21199468947131
C         4.04387332701807    1.79822935461982    6.20312928745187
C         2.48783691706152    0.11472340346549    1.58859165612516
C         3.09217074519086   -1.13943613021611    1.68429339905683
C         4.06965906333882   -1.50155845125441    0.77804871576633
C         4.45571228967248   -0.61315043647344   -0.21633360342033
C         3.86528329712672    0.63708307054507   -0.30315356912506
C         2.88328724922426    1.00886342891979    0.60000789882480
C        -0.25191609642054    1.97817156808736    1.03784258293529
C         0.38867445315867    2.02087710008194    2.27577507197437
C        -0.93249112474000    3.08986445873433    0.57952821325612
C        -0.98485607102218    4.24178610694094    1.35065815595942
C        -0.35856609215890    4.28169411388603    2.58524315903225
C         0.32723661295652    3.17326836299614    3.05032387796708
C         0.00431060877707   -0.77656118778411    2.73015071999490
C        -0.81954283230167   -1.00336816265180    3.83048540535449
C        -1.82120408269567   -1.95339452930741    3.75469039529276
C        -2.00501544286470   -2.67855180604688    2.58671925627400
C        -1.18484753367888   -2.45485916473219    1.49294973991005
C        -0.18095707824862   -1.50416798173979    1.55820244614943
H         1.39969335731912   -3.02458913622996    4.97682756608135
H         2.64489040397899   -1.15722412287648    7.89427424458026
H         3.25403487910352   -2.13108383243305   10.08655561384244
H         3.08579108281743   -4.56731013121666   10.43382279476763
H         1.76727251719089   -8.26110208466342    7.81779013137181
H         2.54684113349087   -6.76904964844240    9.61868215476241
H         1.15625289788733   -7.31982353598286    5.62310134649293
H         1.31791524308118   -4.93629633490933    5.20216364673767
H         5.16514454940647   -0.12640731046954    6.00600721962797
H         4.94952627142160    0.29536885615641    3.37015281613733
H         3.73445865327152    2.65253561047954    3.00107376807422
H         3.23368188092296    3.71400581802814    5.40267533529126
H         4.10710706469332    1.99670058387461    7.26212852842692
H         2.78689911865762   -1.81122583603520    2.47717668893789
H         4.53598595080928   -2.47249597442510    0.84705686515349
H         5.22202736948128   -0.89553998105930   -0.92141618024604
H         4.17152049209963    1.32776428862112   -1.07384124040525
H         2.42304221080568    1.98522448833613    0.53274382475780
H        -0.21640818409815    1.07584282365990    0.44360537529165
H        -1.42635121030522    3.05787579712558   -0.37941983943555
H        -1.51908804757899    5.10674588993777    0.98966837813317
H        -0.40700483411647    5.17509139563124    3.18857813356892
H         0.80827795092046    3.20370938764876    4.01850157125100
H        -0.65518688512927   -0.44134239414045    4.74185810927994
H        -2.45809678647229   -2.12914834428938    4.60740330022754
H        -2.78637042815221   -3.42041252294828    2.52971412140929
H        -1.32576362014653   -3.02120888788203    0.58507946700175
H         0.46208532505283   -1.34070809497810    0.70453544870225

