77
CSD_code = GINWEF | q = 0 | S = 0 | Stoichiometry = C25H47ClIrNP2 | MND = 6
Ir        2.72527002854707    2.18974455925460    4.98575548872550
Cl        2.84498413270844   -0.20835470072721    4.65233071246382
P         0.63647289132049    1.76573301081217    5.83814483508984
P         2.17811516485715    2.47075210638432    2.63312415028916
N         4.96445834055230    2.40071984543086    4.75146122331127
C         5.14585707704371    1.84395919591221    6.12354933626586
C         5.99656627181318    2.75763834445840    7.01118724091128
C         6.17889677786281    2.03903017672866    8.35525459173461
C         4.78376831911782    2.14726201684894    9.00670894112593
C         3.95612409802401    2.87341975603216    7.93223339321832
C         3.75719757937199    1.88141533758630    6.77939756593822
C         4.99623587272111    3.85206023089344    7.38815070006995
C         5.79321895100249    1.89432821314200    3.72518795273002
C         5.84769217141633    0.53401273432790    3.43373013692924
C         6.64179006123967    0.07807917219099    2.39802200422415
C         7.39413676240302    0.96197421102434    1.64232603528412
C         7.34632925067443    2.31601792700427    1.92782754896230
C         6.55550325299286    2.77950315771010    2.96261494358511
C         0.56703752760530    1.05742924187936    7.54693352747993
C         0.92077330327490   -0.42418353454792    7.60911787173052
C        -0.39012111349652    0.56822906933958    4.87414581620385
C        -1.83552980257431    0.37502986005479    5.31452682465280
C        -0.50693348934026    3.20954886704494    6.03309594068373
C         0.03868789356696    4.25059159191993    6.99923441749239
C         2.36474633340327    1.04377971044674    1.46934685346394
C         1.29284442728188   -0.02763937338934    1.60304449302699
C         0.55309387717834    3.23150637714656    2.14085872953924
C         0.30589085460811    3.48590024621765    0.65946428161729
C         3.36428470600237    3.60641460165100    1.76727734159180
C         3.36073915941485    5.02522467909437    2.31897121776303
H         2.63377475624182    3.69565260593828    5.23878620752171
H         5.56535826994982    0.84050768938557    6.02764380436795
H         5.10989493617301    3.40896686171578    4.80494411308210
H         6.93347568181198    3.07887537143318    6.55133528123775
H         6.93704471279454    2.54109352138036    8.95732364848430
H         6.49157820585245    1.00410734792955    8.21729769310670
H         4.82431420629927    2.73720362501374    9.92382184644140
H         4.36687605623891    1.17151028761042    9.25279848764416
H         3.03966874668995    3.32063130363944    8.31273469952351
H         3.48808083061781    0.90157715565897    7.18086117976680
H         4.62595188170098    4.43781011463465    6.54954465526246
H         5.38161914730769    4.52711012744499    8.15120958106773
H         5.23637490897463   -0.15957893759300    3.98950259783749
H         6.66748990122807   -0.97894432803325    2.17722397847259
H         8.01268089213604    0.59948357192753    0.83491446144285
H         7.92959089260275    3.01569024253642    1.34649157926480
H         6.52381950780651    3.83937611343617    3.18366805027939
H        -0.43297907680763    1.23437790366892    7.95463514165079
H         1.28083486759914    1.63401394127224    8.13833638600162
H         1.17013892395506   -0.71193581738356    8.62913650733307
H         1.77416479698567   -0.63797813875728    6.97047491058685
H         0.09033995098376   -1.04246509691972    7.27698759687588
H         0.15622398861272   -0.37553871016890    4.93096400289207
H        -0.35646423986215    0.88974076203491    3.83142543546036
H        -2.26544944140986   -0.46858575023656    4.77646398989446
H        -2.43896744225176    1.25252988020739    5.09368835357034
H        -1.90459535879722    0.16408657990193    6.37860602709426
H        -1.47866505004765    2.85119192710717    6.37834757309852
H        -0.62912949424342    3.65229761742511    5.04212763556042
H        -0.58711808277418    5.14098948770387    6.99274948801038
H         1.04832435074475    4.52652946563335    6.70690205912526
H         0.06805277286828    3.86012593193783    8.01301410220188
H         3.33991736452782    0.60517462063417    1.70336682451513
H         2.40609422145388    1.42679150623261    0.44458576454391
H         1.46763791595140   -0.82053646041048    0.87719186889177
H         0.29686591885080    0.37786363309667    1.43129051441012
H         1.33410128788864   -0.46407213162423    2.59706901716893
H         0.49691212654421    4.16981310512472    2.70076108736430
H        -0.23381963531018    2.58381090358727    2.53649912246300
H        -0.69248823778044    3.90006053081094    0.52318096096256
H         0.36777280345460    2.56532917976314    0.08433119068223
H         1.01925229091023    4.19784986450431    0.25264137811086
H         3.13956347604211    3.61455212666281    0.69739974526808
H         4.35605360099341    3.16048178782758    1.88470381502521
H         4.19789379315126    5.59359186305007    1.91584940466830
H         3.43602071112775    5.01022184751998    3.40428716218991
H         2.44158668152251    5.54308833387846    2.05495695346786

