65
CSD_code = GIPCAM | q = 1 | S = 0 | Stoichiometry = C33H24N5ORuS(1+) | MND = 6
Ru        7.42944678589167   12.79707334477108    8.64069121683346
N         9.18705524376089   13.32130795697971    9.44715999468996
O         8.17953576019318   12.28453239684048    6.78787202452743
N         7.43219697951826   10.87182803891940    9.05162528754726
N         7.47681736678111   14.79955088200008    7.99375735453812
N         5.71135249426850   12.29669652935086    7.76950161896809
N         6.85490793618262   13.25399438434179   10.47161194561193
C         7.74721646019529   13.99381774072112   11.18003198165838
C         9.56584627511465   12.39819551804954    4.93816929956657
H         9.33714877304181   11.35656481000610    4.76841540801249
C         3.65305699360046   11.29223940816957    6.19092031320635
H         2.85737472293983   10.90361989364027    5.57578708356835
C        10.11895229005193   15.05892756962941    5.42278434679055
H        10.32566772883616   16.10508584374635    5.60001028936786
C         8.92095236002685   13.01830765195879    6.04017837122023
C         6.49215036821670   10.15395646476147    8.39676206072803
C        10.38140385905250   13.22346110945802    8.86809768697329
H        10.45411169262414   12.54086848604094    8.03101853154934
C         4.89175914552576   13.11293391569436    7.10912696586841
H         5.07806241356350   14.17391254606032    7.21526399415032
C         5.33328423059375   13.38290343684996   12.30825945339138
H         4.38115153796152   13.10316133832489   12.72838116338785
C         6.46622878361637    8.76125127419838    8.46877973174055
H         5.71305030878295    8.20338008369868    7.93781584316378
C         9.17942265700239   14.41296947582393    6.25310445836118
C        10.11625078217177   14.87823628936847   11.01404583138006
H         9.97962056026652   15.52884396957180   11.86191483776259
C        11.33657495823038   14.81572922374763   10.36771671821676
H        12.16438635200724   15.42043067225112   10.70166493198295
C         8.33943764183615   10.22456780177457    9.78185774253877
H         9.07123782114159   10.83668025050943   10.29633915868071
C         5.69136231704923   12.93939271110226   11.05359618563306
H         5.01833688422360   12.31968604843267   10.47053122484778
C         7.43596754954880   14.49695272339676   12.44233691064253
H         8.15255512151491   15.10049783865329   12.97418173846587
C         4.50288571740890   10.43617917086017    6.86601305776799
H         4.37855753941397    9.37000807191796    6.77509326760699
C         8.37127602033318    8.84866485989578    9.89698026539061
H         9.12943080102252    8.37423742019016   10.49821619622501
S         8.88398652595936   16.89223182051962    7.41111189832036
C         8.47816136925973   15.18694323166108    7.22379793936479
C         6.91191803071847   15.84006339042405    8.69298136330041
C         9.05355615987979   14.10726300962833   10.54355304514512
C        10.45495485106525   13.06823411648763    4.14594054827145
H        10.93618389816041   12.55794703344929    3.32544971186269
C        10.75245390587801   14.41232208837767    4.39833936938446
H        11.46280607195773   14.93590191475085    3.77944441800235
C         7.41675266919289    8.09802497070025    9.22100038428046
H         7.41618709464247    7.02164261054373    9.28178472219749
C         5.53061144438391   10.96118401662035    7.64850847759497
C        11.47986374142178   13.94916302861558    9.29023949673616
H        12.42106255039966   13.84823945198438    8.77596182777777
C         3.85433266335923   12.66070044021105    6.31517703764523
H         3.22370472809465   13.36590866863827    5.79906127638679
C         5.74726556961049   15.79996839852966    9.46108788387370
H         5.16404748720939   14.89370578931476    9.51995687663572
C         6.21198545814413   14.20461662319308   13.01004169972808
H         5.94981985343217   14.58938053372067   13.98194400130087
C         7.57604781537350   17.07015623332754    8.54048150070303
C         7.16139862951582   18.21492499447094    9.19864169320116
H         7.69593366945804   19.14182582746868    9.06829499824004
C         5.33337864421710   16.94228026775119   10.11432133957111
H         4.43427422491032   16.91223676864535   10.71017156347201
C         6.04186403059547   18.13555742916330   10.00366844631450
H         5.69801567964174   19.01293019009492   10.52762398813156

