75
CSD_code = GIPDEQ | q = 0 | S = 0 | Stoichiometry = C36H35BIPPd | MND = 6
I         1.69558690541773    3.89060861408776    9.36941855544709
Pd        0.80518218332884    2.13973529799395    7.69112664237233
P         2.15233458196666    2.56366186439798    5.92894798067727
C         3.31656830384903    1.16363738832663    5.89903362667334
C         3.87517937361717    0.62631027719510    4.74501151503038
H         3.64874774871952    1.06332518734396    3.78154902396124
C         4.71286088015886   -0.47091150244109    4.83529834259905
H         5.14234947379082   -0.89343812524052    3.93843265379597
C         5.00282463812628   -1.02757867299251    6.07097668331816
H         5.65979104765590   -1.88278029834455    6.13332054854961
C         4.45235088948829   -0.49212973022320    7.22437180878552
H         4.68201546500885   -0.92370477864366    8.18735049647803
C         3.60234682098874    0.59476160590476    7.13988107728453
H         3.15740918807541    1.01700415767526    8.04910442232083
C         3.18179460428583    4.02244238642923    5.61241955097676
C         2.53254808976512    5.25535417266479    5.62417718922625
H         1.46385379561271    5.28950869182865    5.79686075226452
C         3.25137407619434    6.41829935386639    5.43331430854602
H         2.74697909744764    7.37275583941798    5.44595667378842
C         4.62309868514360    6.35820222215373    5.24046353221737
H         5.18757139967356    7.26749718653684    5.09758824606688
C         5.27329004356824    5.13569587500897    5.24519429897945
H         6.34376408609486    5.09155619246029    5.10694078788112
C         4.55911142351976    3.96577763281873    5.43600359822436
H         5.07016946732478    3.01294223561020    5.45228998861666
C         1.11258435126903    2.42056186874347    4.44079233451171
C        -0.18873287718281    1.91648496033656    4.61133777198566
C        -1.00622604440471    1.87871058968457    3.48028884144094
H        -2.02181653731213    1.52084045557460    3.58241592873783
C        -0.55209149399344    2.29053975547181    2.24044642249624
H        -1.21044197950735    2.24567276097353    1.38508522996557
C         0.73637789686354    2.77958620261409    2.09589798140715
H         1.08776657941804    3.11507103708598    1.13123182467295
C         1.56455670921518    2.85620563460366    3.20083596731818
H         2.55964183043851    3.27246809442867    3.10972389101038
B        -0.77436231611748    1.40306062512879    5.99432903661084
C        -2.21696468288584    1.93033589579180    6.35998047209920
C        -3.29192978146880    1.03133013895466    6.44140937990318
C        -4.57235437429810    1.49743949160823    6.69394790561106
H        -5.38920205244364    0.79070261385095    6.75101390493133
C        -4.83224118186741    2.84731270539029    6.88226606706746
C        -3.77103040066979    3.73571386170138    6.80276031308580
H        -3.94947547337482    4.79153864312729    6.95204056729109
C        -2.48327180489179    3.29707152895184    6.53898050153003
C        -3.07779150942037   -0.44413789343067    6.24861202378489
H        -4.03045010937875   -0.96828359098578    6.22153117592838
H        -2.48495992728741   -0.85671703752893    7.06465741109527
H        -2.54659989710917   -0.64517369572359    5.31946955949808
C        -6.22665411725667    3.32795767998047    7.14405112050727
H        -6.77226079829359    3.41873841138680    6.20380545807509
H        -6.21758173355534    4.30265344709298    7.62598932067069
H        -6.76572267203820    2.62549817913325    7.77662661816613
C        -1.35972701142097    4.29166753458201    6.48417286325519
H        -1.70148384926218    5.28244853571702    6.77556808172783
H        -0.95408926201461    4.34692642913192    5.47132805013972
H        -0.54811537853202    3.99105553239416    7.17461310807699
C        -0.04084467578969    0.28021296132792    6.80353542708423
C        -0.08732986130162    0.24404244755651    8.25645460723419
C         0.62946232839008   -0.76101573500840    8.95874314005690
H         0.60666289644979   -0.74056640274279   10.04165114628228
C         1.29886244007557   -1.75776701455650    8.30411113415570
C         1.27175232373183   -1.77200948104278    6.89723706202872
H         1.76330440003413   -2.58794619585709    6.38507272082131
C         0.64896506857466   -0.79592604198665    6.16157681171592
C        -0.61572000038682    1.35359415833017    8.98160807081734
H        -0.51296587819108    1.31582114590861   10.06508047649778
H        -1.54261314741317    1.82648170797699    8.65249044016590
C         2.01660550416964   -2.84515254464989    9.03970142747620
H         2.16201136546733   -2.58112454618947   10.08430899279130
H         2.98501078137575   -3.03984184176987    8.58210085149449
H         1.43693994655269   -3.76794175568702    8.99587680947115
C         0.64215719143617   -0.94605963773041    4.66568923583828
H         1.34462415415724   -0.25559067134025    4.20076510364385
H        -0.34359925411910   -0.74803387947257    4.25068784831811
H         0.93846204674138   -1.95689014267349    4.39276725742816

