92
CSD_code = GIPHOF | q = 0 | S = 0 | Stoichiometry = C46H36F4IrN3O2 | MND = 6
Ir        2.87180977869218    2.86408629849114   13.75450488910588
C         3.89025438932695    3.33794331143974   12.08746865694039
C         3.39582986685481    3.45723703890670   10.79399199958373
H         2.37795978924037    3.19188599113976   10.55285084004857
C         4.20726748681689    3.92440654672303    9.77798872099722
F         3.70285171065886    4.03318619191764    8.53204392214170
C         5.52476323968985    4.28345398555014    9.99309787407643
H         6.14835744948471    4.64840531593925    9.19413940198443
C         6.01784157435411    4.16068715236236   11.27621776859735
F         7.30978649276895    4.51394908544973   11.45985206430547
C         5.23683164805383    3.69706778220533   12.33503607466691
C         5.67175187396605    3.53995552115819   13.71876426310514
C         6.94169182994287    3.83672671392650   14.20624975231358
H         7.70375869936575    4.22743899353308   13.55432790212262
C         7.24719683525946    3.63449531794747   15.54433891834308
C         6.24773992526205    3.12371278976249   16.36922389693051
H         6.43389896946926    2.94841018304800   17.41726146664849
C         5.01021551050052    2.85245689300749   15.82501750717087
H         4.22450676695329    2.44948145712190   16.45011067926656
N         4.71442484412521    3.05102219085001   14.54311902600146
C         8.59379383573327    3.94099205627899   16.07060473964093
C         9.54584031378972    2.92403872335730   16.15992369038986
C        10.80345576056636    3.22556869773498   16.65562604334034
H        11.54616999513255    2.44331594478214   16.72557632350204
C        11.13202031060201    4.51250504710586   17.06200714703911
C        10.17141656674175    5.50722810376359   16.96234067963225
H        10.41398534948040    6.51387434453837   17.27210837917581
C         8.90237076104120    5.24105034720262   16.46890633361681
C         9.20660145807048    1.53345248851428   15.71142792827649
H        10.06861795591693    0.87837764038380   15.80658687610617
H         8.88433370130934    1.53624733050613   14.67063551192853
H         8.39216851065851    1.12323459824393   16.30816901315244
C        12.49898896618794    4.80468534271650   17.60206919457330
H        12.64971433300047    5.87410495453386   17.72494675900060
H        13.26505472358700    4.41695529390489   16.93258374409006
H        12.63077817794543    4.32432987283759   18.57159847181723
C         7.87607683720548    6.32766729075306   16.35605694110291
H         8.24393838008989    7.25157165226352   16.79462086643860
H         6.95271250510077    6.04494310564443   16.86020998501360
H         7.63343307067881    6.51454886727789   15.31033091599043
C         2.93458602959640    0.91801846820156   13.25740049887978
C         3.94751585281249    0.00101487175384   13.52112476512160
H         4.88433241915565    0.31609104964789   13.95460345353881
C         3.77307992084265   -1.33804821803729   13.22851449213171
F         4.76837161286922   -2.20633353986874   13.49984956423703
C         2.60234106768809   -1.82697337051889   12.67701495932225
H         2.47503113576294   -2.87452362990284   12.46101835436407
C         1.59672167689910   -0.92017926184479   12.40944504768878
F         0.45362959721680   -1.41901463098303   11.88619461175753
C         1.72986705220481    0.44128735671600   12.67815846696905
C         0.72656176206926    1.47027901411175   12.41998738538789
C        -0.48707153356997    1.28666231373207   11.76528794414140
H        -0.77421551886041    0.31610938429291   11.39816919462331
C        -1.33972592014098    2.36334630111811   11.55926351646054
C        -0.94256458455502    3.61357924549562   12.02928913718364
H        -1.57379291001916    4.47754882234822   11.89350566735817
C         0.27498345846935    3.73189728169412   12.66706173323217
H         0.62418296057191    4.68947863666561   13.02926717347028
N         1.08925156179567    2.69840122044258   12.86213699354058
C        -2.62278840767923    2.18504885794256   10.84768119955196
C        -2.69782976430402    2.46707399269340    9.48291927320756
C        -3.90707596588883    2.29253749934097    8.82925698802138
H        -3.97098020378431    2.50713240752153    7.77200332557913
C        -5.03683174393582    1.84688054163470    9.50174150513203
C        -4.93901185078436    1.57281553261786   10.85795632131958
H        -5.81050717648244    1.22387628479113   11.39361386054333
C        -3.74423828715033    1.73366868561415   11.54257143466012
C        -1.48154288482121    2.93606979950895    8.74214501196458
H        -1.70265489738825    3.07037897731611    7.68676150112328
H        -0.67238176322022    2.21271369438669    8.83843037707316
H        -1.12574761560610    3.88404444655873    9.14426109071497
C        -6.33784848152334    1.68619308436062    8.77631272557967
H        -6.17428254886722    1.30570929986536    7.77042868603461
H        -6.83907000170373    2.65099413562272    8.69191689923067
H        -6.99889787404703    1.00637503865409    9.30815201189652
C        -3.64852002744392    1.42631713882382   13.00767130092179
H        -2.97683653686569    0.58487789737412   13.17711978235763
H        -4.62549012101348    1.17448550969650   13.41183796177286
H        -3.25328542300664    2.28108924377973   13.55594430760010
O         2.59341998031762    4.91016495659056   14.41979662683652
O         1.89272119101936    6.11728239988376   16.15129972946876
C         2.06314737839675    5.06842255189013   15.55262520203059
C         1.55852690881065    3.77540174973848   16.23476046291778
C         0.84546912723071    3.85017486083356   17.42437778443871
H         0.67585684065144    4.82668032448703   17.85099859115898
C         0.38700352523522    2.68399338028690   18.00756001482715
H        -0.17260199161222    2.70741155733034   18.93084352615647
C         0.66472892630790    1.47719081657807   17.37840689458321
H         0.32940062735746    0.54017138363846   17.79441859240061
C         1.38592971598327    1.48979526933836   16.19866480138164
H         1.62844893110096    0.57078319265631   15.68147119529555
N         1.82287458030224    2.61310371072494   15.63612288661064

