59
CSD_code = GIPKEW | q = 0 | S = 0 | Stoichiometry = C19H33N5SiTi | MND = 8
Ti       -2.53543655085802    3.05938345364249   36.42094287492399
Si       -4.96356103777471    3.07799451515767   38.12101756506699
N        -3.23476287646368    3.31662178850337   38.23962467806461
N        -3.20781859583261    3.74675439564966   40.50295964550811
N        -1.21370015028523    3.78091548642572   39.18633193544589
N        -1.89470113966337    1.33088235533294   36.45755059202282
N        -0.95932571777970    3.92558874234635   36.10575707309773
C        -4.83094063264852    3.37839957106414   36.25137547723288
C        -4.54900782688750    2.34793224562070   35.31678696981657
C        -3.70033760000307    2.87204122562917   34.31210812008769
C        -3.46548803024369    4.25052636807086   34.60945818558992
C        -4.14924891061733    4.55563133745094   35.80339857087588
C        -5.22714152056715    1.00607308314254   35.31649939054788
H        -5.26631354559194    0.58919920804705   34.31018537993764
H        -6.25013000416418    1.12099170543198   35.67267070830456
H        -4.72773858683098    0.28637548676397   35.96454497481012
C        -3.31087004438957    2.24979180899277   32.99763708591698
H        -3.68129834194689    2.86501024228125   32.17401836850014
H        -3.73661827117236    1.25411955840136   32.88376058997807
H        -2.22553772891264    2.17629473680173   32.89403343198578
C        -2.79558069377747    5.20136051274637   33.65673347379087
H        -3.45921881911214    5.41479760651586   32.81351427412547
H        -1.87649388421079    4.77023057646357   33.25804245870081
H        -2.55407368514904    6.14707640954287   34.13874242477344
C        -4.29159839042127    5.91311307300071   36.43376852686045
H        -3.65504466892048    6.64805252131758   35.94170686961318
H        -4.03865517480038    5.88744796500811   37.49640898602996
H        -5.32521453987073    6.25635472164776   36.34524476663285
C        -5.35842515226121    1.29046162825333   38.68099558604704
H        -4.59923370613902    0.59524662869032   38.33197812628715
H        -6.32533286529693    0.95206235693465   38.32622307959809
H        -5.37119599552232    1.25034453005987   39.76534839107517
C        -6.11253720528026    4.26478966407526   39.08192691023471
H        -5.78850596201634    4.31224290526574   40.11517494043485
H        -7.13397284157449    3.90001001448979   39.06490755619469
H        -6.11387017438802    5.27324002196575   38.68443836134940
C        -2.55352755249669    3.61206980521999   39.32830412316771
C        -2.49339741137821    4.06012589986936   41.55948644729043
H        -3.04807901201399    4.15976788976915   42.48669986490215
C        -1.11867364907513    4.25599431556046   41.51452311160575
H        -0.54665638056255    4.51336947736647   42.38984131863357
C        -0.53117198542375    4.09570434702018   40.26724021780146
H         0.53789467462098    4.22380800598297   40.12838614874518
C        -1.96484646244214    0.20189226879348   35.56335898435742
H        -0.95829784866923   -0.07584346959351   35.20007157423032
H        -2.58934650002863    0.42191401526416   34.70032757079334
H        -2.37064499173062   -0.68848440716990   36.07569235395499
C        -1.05166005748975    0.99987729624678   37.58673174429276
H        -1.53294322981576    0.24438428555365   38.23316251246504
H        -0.84739654439061    1.89736614025269   38.17739153885115
H        -0.09070428258453    0.57554667457019   37.24668368064586
C        -0.72781294343564    5.26596235783406   36.57795904031177
H         0.14622728983725    5.30014644791943   37.24782887667339
H        -1.59550021176140    5.62028021396916   37.14087940189140
H        -0.52757122066727    5.95983344128062   35.74057740040379
C         0.18692159598427    3.41759892309622   35.39714613240491
H         0.47498790133905    4.09671073499511   34.57415118052189
H        -0.04168674613585    2.43519312376818   34.97506714721543
H         1.06191643969539    3.32382376170344   36.06257327937667

