60
CSD_code = GIPKAS | q = 0 | S = 0 | Stoichiometry = C20H34N4SiTi | MND = 8
Ti        5.81662447583842    3.39191657760820    9.45488232316018
Si        8.17837938138623    1.60623979573255    9.37131107940696
N         7.73761035776032    3.28076570987985    9.64033536299453
N         9.93915788442579    3.84950764562850    9.88534098296118
N         5.61914589897792    4.34855739376506    7.88701025078756
N         5.32917778639029    4.61986129898951   10.73875602782701
C         6.33169014832826    1.15093733794912    9.45526401677128
C         5.42904426270129    1.35407383587162    8.37467084302655
C         4.17622428663887    1.74692561069160    8.89830319627214
C         4.28860203900347    1.78923064257577   10.32192927907018
C         5.60786858836151    1.42276998815685   10.66085521541690
C         5.69121413051344    1.02859748680949    6.93065750137072
H         5.77524051607005    1.92725325556705    6.31587875914632
H         4.87621314734709    0.42262023846066    6.52951291217119
H         6.61246056820772    0.45943394398839    6.83865742398636
C         2.87486705492708    1.78755284515217    8.14484710306281
H         2.38476220097148    0.81086921795904    8.20515555903210
H         3.03202089412113    2.01824342836161    7.09269682285685
H         2.18706007441271    2.52258231516345    8.56489055753460
C         3.12343587924508    1.98114335036804   11.25316573096706
H         2.51460295724590    1.07330526891351   11.28766262041660
H         2.48258513790244    2.79945053519037   10.91945188853989
H         3.45549797474370    2.19932613148845   12.26705288562171
C         6.11394105254564    1.12681606509615   12.04478360125247
H         5.47238581126506    1.56534509839041   12.80767961088158
H         7.12866471949779    1.49377882882891   12.18981512482017
H         6.12696747694287    0.04543934073193   12.20567182585282
C         9.05248449091366    1.38816671447233    7.68120685150149
H         8.54446082014960    1.91955229169726    6.88266913743743
H         9.13225366254537    0.34284752570672    7.40243471467656
H        10.05807901212144    1.78784187827182    7.75695155722426
C         9.28312812475060    0.77023726024040   10.69478984754033
H        10.25099210070814    0.53696304493799   10.26727376097010
H         8.85091067257901   -0.15351513144425   11.06439876520473
H         9.45673959150589    1.42935202742700   11.53837361280883
C         8.65792105523542    4.24427092451630    9.80406367197003
C         8.30744505235741    5.61460579799781    9.88026860242030
H         7.26120664421508    5.88902594696306    9.77861451293956
C         9.30365691869381    6.54261292445917   10.06339653643595
H         9.06689453556920    7.59682688380675   10.12550037694799
C        10.62854925207108    6.11795342774462   10.16271733842691
H        11.43282698919429    6.82187827697890   10.30693341743956
C        10.87763639968206    4.76261984666736   10.05963525168536
H        11.88855072035147    4.37556206703509   10.11836816686501
C         6.70481864019759    4.71626717776774    7.00942178610547
H         6.55989896368827    4.29292289659379    5.99862018166979
H         7.65635373422819    4.35634937289651    7.40482288414155
H         6.76644351756432    5.81236803564231    6.89100457410024
C         4.36110355507978    4.74386852252686    7.30546077042172
H         4.31297829892185    5.83864695905819    7.16217597068774
H         3.52802796638948    4.44003166986417    7.94506713214170
H         4.22059562880042    4.28763318186151    6.30775222248353
C         5.91978728532061    4.52450409860890   12.05248225891068
H         6.27852811129578    5.51147347570157   12.39172841422418
H         6.77432908771007    3.84297970949967   12.03424924054530
H         5.18771681088507    4.17445830034963   12.80289715139702
C         4.30214829961108    5.62939918442262   10.72357574178808
H         3.48408868906711    5.37746431548706   11.42391608767411
H         3.88375589300177    5.73877681636508    9.72182708615145
H         4.70264476985032    6.60921138848734   11.03816386989032

