30
CSD_code = GIPNEB | q = -1 | S = 0 | Stoichiometry = C13H8BrN3O4V(1-) | MND = 5
Br       10.84286410114737   12.85903622661615    4.01964026355692
V         5.17764183999095    8.50283135248559    5.95776236457158
O         3.60716917288911    7.98246925890056    5.01649329952531
O         7.00085405087045    8.67219685539239    5.91464490226823
O         5.13400472664382    7.23651105495835    6.82812276829812
N         5.41165013878167    9.32788833176459    3.98375427997313
O         4.69844211443236    9.76140586196061    6.70765975300928
N         4.29367164409007    9.21691870114445    3.23473897940783
N        -0.08175679856516    7.30722500466514    3.30149029171584
C         2.09170888402361    8.30345927901612    3.21899402073057
C         3.39855184147922    8.50418334007618    3.88329970332117
C         6.29993998964291   10.17963391744894    3.61213109928561
H         6.11684569217831   10.78844516840425    2.72034318081301
C         7.78200032665933    9.59929456701093    5.50508394850248
C         7.51277960082381   10.38385722366976    4.33901537745327
C         1.80221614181257    8.86060684147231    1.97601524709572
H         2.54847127044185    9.46184866757621    1.48041580978512
C         1.10400000730934    7.53369404400249    3.83642222582496
H         1.29770494138904    7.09033965332765    4.80464813516546
C        -0.34405958839947    7.84227497053143    2.11929387438345
H        -1.32909805959171    7.63045574553181    1.72050898966982
C         9.59459502771018   11.54377334033255    4.61892012701218
C         8.99915494744996    9.85058064863092    6.18803122519747
H         9.20280906423717    9.26402032056559    7.07186937945585
C         8.43207061676254   11.34706350418498    3.91447406649762
H         8.21843425163947   11.93328955869400    3.03118631958070
C         0.55924021073483    8.62475238865146    1.41503467507317
H         0.29383233627239    9.03894237002592    0.45335593394392
C         9.88916426569518   10.80327429968708    5.75911186508406
H        10.80929724144899   10.98082750327126    6.29703789379788

