65
CSD_code = GIPSOQ | q = 1 | S = 0 | Stoichiometry = C27H26ClN6O4Ru(1+) | MND = 9
Ru        7.35704993049630   11.45193742170013   12.12834376139639
Cl        5.90383985857604   11.78964371974449   13.93000042401556
N         6.87991920160006    9.51823759176915   12.27380459365523
N         6.68673611621492    8.99068362902866    8.84699619642653
N         5.74764004812822   11.65487621815331   10.98919059578485
N         6.54041688393067    9.61252455859638    7.68565458232319
H         6.18214263788138   10.57476371902897    7.63561125767180
C         7.08750001864373    8.88045469436034   13.42774756013006
H         7.31256717434764    9.50347217471212   14.28563208447437
C         6.27067888782109    9.52524767277726    9.94054134259875
C         5.44377767085281   10.75368420802547   10.04294341069494
C         4.33888935718322   10.92403585122497    9.20874822108695
H         4.08067096272159   10.15709960213930    8.49481864140190
C         6.55814133384274    8.79874377092792   11.18662198916316
C         3.55418332089494   12.05644281347939    9.33726999651167
H         2.69534539164041   12.20148605318691    8.70240313711094
C         4.99320105731592   12.74943816055311   11.10900088916338
H         5.27063058291814   13.44176421124627   11.89625133915426
C         7.44779617894475    7.75663072532013    6.46161348780905
H         7.44786302997092    7.19064554734205    7.37854350742789
C         6.99638977657739    9.08624621290450    6.51441030928003
C         3.89785876295153   12.99256092887936   10.30153544643242
H         3.32077688032917   13.89203953440797   10.43806059399278
C         7.00073118403937    9.85174277370098    5.32241161634710
C         7.42246837745839    9.27374427117645    4.12767501625945
H         7.41960433584100    9.85692790340389    3.21630817705068
C         7.84919992775621    7.96208810669902    4.11133363690185
C         6.48115076199018    7.40868740873509   11.22513611353618
H         6.23372783547441    6.87714844405259   10.32139110702604
C         7.87122801264007    7.19942348345459    5.28172487948181
H         8.21823452437823    6.17829252306942    5.23208455622054
C         6.70872909373976    6.74973828817924   12.41923324842774
H         6.64817092409906    5.67469785930308   12.47428275281559
O         6.30960096014657   11.78318924333906    6.33416050117488
O         6.59214257491498   11.78532936788674    4.20974028346988
N         6.60573527609719   11.22933998815618    5.27578141007954
O         8.25493540539016    8.06554721555954    1.87821860844282
N         8.28941423580970    7.36693176154053    2.86104985354045
C         9.19387877445362   12.39789205008372   13.27815393539122
C         7.00407157662990    7.50590145235476   13.54586704013177
H         7.17162096368645    7.04060927213758   14.50322585102654
C         8.90197302139893   11.98346397993445   10.45233592001703
C         8.57735667844486   13.38238383876391   12.44818272553887
H         8.29679903347997   14.33522027416213   12.88502431563571
C         9.46064767760497   10.99560337482219   11.27720264664366
H         9.87298317849855   10.09753284227270   10.82836829268457
C         9.61795938083253   11.20555580114775   12.67404367573823
H        10.15372335386260   10.46388766721148   13.25531727693821
C         9.49476025476481   12.71479448054431   14.72194586451013
H         8.92332279353348   13.60567770245763   15.00160647658661
O         8.65754550838999    6.21751000212054    2.90585400716158
C         8.44228826557708   13.18317635358753   11.07095664641357
H         8.06398167953769   13.98478602260177   10.44289939926365
C         8.89773338040789   11.84929552778967    8.95998883690929
H         7.99756735596539   12.27564651128260    8.51905596690798
H         9.75054932630574   12.39478235678765    8.55259607444717
H         8.99218412313095   10.80771772629450    8.65971653131181
C         9.09676191552167   11.58789425079028   15.67473733214480
H         9.29444723713362   11.89414152500793   16.69798403999774
H         8.03180915628668   11.38520209303487   15.58280046680632
H         9.66007772155385   10.67795012523954   15.48138064478979
C        10.98951389974845   13.03897184142611   14.84207884784615
H        11.26645384868843   13.84903928288616   14.17082669011793
H        11.21470510571868   13.34470560734881   15.85970514036974
H        11.59519629531646   12.16787038014384   14.60257022627256

