62
CSD_code = GIPTAD | q = 1 | S = 0 | Stoichiometry = C28H29ClN3Ru(1+) | MND = 9
Ru        7.18063628177838    4.86289128357520   10.06057790915637
Cl        6.49859164589572    6.94048728229790   10.88664078781806
N         8.73793530242055    4.83089499403194   11.27514813801584
N         6.34550920974260    4.25890259205770   11.75946349985865
C         8.53821501995664    4.48782238101069   12.53005075086203
C         9.61892484535665    4.36960057421945   13.52537911671983
C        11.55800445728937    5.56880688929003    9.11379665897840
H        12.10874196945422    4.65919468362098    9.30162881572935
N         9.99128603063913    4.90684763440369   10.80868748270513
H        10.71791678648392    4.54603401272175   11.42604514013968
C         7.15884063504307    4.21969856067284   12.84263713595293
C         6.65004761306981    3.97973032800026   14.12297700015393
H         7.32147653661094    3.98523345705298   14.96609924465242
C         8.16999407840904    3.69914689697222    8.35971556983998
H         9.12773474811129    3.19087041591352    8.33630678923134
C         5.03803181429496    4.08178121707912   11.92548336988295
H         4.41809080962097    4.17600847819199   11.04334678036510
C         8.08699741232424    5.00645130369002    7.82038373762232
H         8.97351564590041    5.46547393879639    7.40041055441699
C         7.01044756185149    2.98651935603882    8.73746497423664
C         5.29625183828102    3.77112873226266   14.28024465458334
H         4.87908916785232    3.59105878447880   15.25788685803364
C         4.47324247788060    3.82148216883877   13.15858347228280
H         3.40834534091154    3.68250641635118   13.24283345196646
C         7.06981466077691    1.53076252084673    9.13508663036006
H         6.07475764717345    1.22967527294394    9.48161828111039
C         6.86683865337681    5.68815582514917    7.78312522197579
C        10.48781851744230    5.44070174847171   13.74368056700883
H        10.35451234307856    6.35987620921395   13.19110623667701
C        10.40545678011085    5.84246058822857    9.84648014579422
C         5.76920530466084    3.66483625985201    8.63893472198888
H         4.85422343464477    3.11621152965561    8.83917158967016
C         9.70482800974914    7.02631198235537    9.63490022279877
H         8.83993987065693    7.26482035797558   10.23865418727994
C         5.70064336426685    4.99949448228889    8.23197456545365
H         4.73695473231263    5.48920386467165    8.13789785087615
C         9.77233985240285    3.20066034528356   14.26974253942774
H         9.11326178267902    2.36371549901330   14.09182119700484
C        11.28245042695927    7.63687386663400    7.92563116106640
H        11.62509356162264    8.33538987873227    7.17859881011682
C         8.05921317053074    1.30862732432935   10.28184453228823
H         8.00121704574446    0.27886657403658   10.62364088803352
H         9.08100919473749    1.50004051798390    9.96310846896975
H         7.82288892464832    1.96479501869864   11.12190727755491
C        10.14796330438149    7.91493400210739    8.67011043000141
H         9.61038288574656    8.83765246924127    8.51602909356215
C        11.99076305514265    6.46714246006482    8.15671242688001
H        12.88440570394119    6.25499492225590    7.59078109859343
C        11.63489075231630    4.17528927955448   15.42910059675815
H        12.41436545720492    4.10083824696197   16.17086071995210
C        10.77838216720574    3.10732065545402   15.21408536788808
H        10.89399508471042    2.19798654548585   15.78302875006108
C         6.75249806980913    7.07815412600153    7.25151695068169
H         6.47544107648667    7.75660969722843    8.06052300450858
H         7.69355180335144    7.41400095224747    6.82419604923349
H         5.97229787067548    7.13227292880668    6.49357726761488
C         7.43410512267263    0.67353134201075    7.91872771083995
H         6.72168158608954    0.82944886551628    7.11210019960711
H         8.42825836028040    0.91832070517250    7.55333467360374
H         7.41833139968137   -0.37775320971064    8.19190479248642
C        11.48665619943386    5.34087507968272   14.69433113849145
H        12.14449559416642    6.17822888488447   14.86676274086044

