90
CSD_code = GIPTIL | q = 0 | S = 0 | Stoichiometry = C42H41AgN2P2S2 | MND = 4
Ag        6.56863671663386   11.42015361909266    3.57257180727854
S         9.00420619211339   10.66347072243113    3.03053049027961
S         7.13191672894951   11.84345287190240    1.06117846525628
P         5.24400312221002   12.49434113116305    5.35428582075201
P         5.45146637388268    9.03913922719724    3.46759000613784
N         9.50031123318189   10.88572143474438    0.46488951009050
N        10.43994457897231    9.08941517739107   -1.50910912399459
C         8.60467162969518   11.09558333784236    1.44076485745932
C         9.23034147531044   11.12273375336703   -0.93214496229913
H        10.04112430003259   11.73609864180208   -1.34045239723907
H         8.28427437433709   11.65495916945735   -1.03516092507585
C         9.17912752826029    9.79007313739768   -1.67599603924038
H         8.33064652998485    9.19716293180874   -1.28868912004733
H         9.01899494524053    9.97497442042152   -2.74070764911591
C        10.68432547181542    8.84199875232922   -0.09892916224390
H        11.64304454320099    8.32866417715451    0.00521467825823
H         9.89567341420575    8.20862672214102    0.34672427466255
C        10.73784986636683   10.16941858872261    0.65476849406178
H        10.89896725562311    9.99612365134541    1.71917802468670
H        11.55446196535108   10.78172474994497    0.25640325094088
C        10.48526552758341    7.87189922645828   -2.28667069561332
H        10.35262452799131    8.11824151592326   -3.33945531433275
H         9.70641213045174    7.15006336828551   -1.99390404492566
H        11.46024292803475    7.40385065221122   -2.15758586087278
C         5.84043822478806   14.08145783553485    6.02117017464175
C         7.07440048021289   14.54462464788277    5.57900437407348
H         7.64101103574481   13.94526159338189    4.87164769416984
C         7.57023670436319   15.75120862450200    6.03974323907996
H         8.52988942136581   16.10772734945595    5.69590386425330
C         6.83245882150385   16.49992231012635    6.94136706028482
H         7.21639209470622   17.44279545594342    7.30203380837345
C         5.59963901625561   16.04254339013522    7.38222904115856
H         5.02616951705499   16.62985070652511    8.08465862770012
C         5.10006868950157   14.83769106290925    6.92529827926366
H         4.13980098562084   14.48049046828207    7.26853669783668
C         3.60149201588081   12.97735945891806    4.72708384600492
C         3.52334277094212   13.26889243019386    3.36759164564948
H         4.41512705296468   13.16403334478760    2.75332766529995
C         2.32431497074187   13.66605230439247    2.80611724211416
H         2.27034501782516   13.88679359613416    1.75059695243893
C         1.19287548587282   13.76999429884512    3.59955595337601
H         0.25307665586670   14.07534338724668    3.16352405231018
C         1.26409353675127   13.47513390725259    4.95151230385110
H         0.38007987064720   13.55106992801285    5.56809781074837
C         2.46276831157678   13.08096150505505    5.51907351944970
H         2.50730555638343   12.83616206480200    6.57112882802163
C         4.84373611547559   11.53916721265359    6.84630532898244
C         3.91829765693907   10.50117078821397    6.75047969542164
H         3.39902965131081   10.33427863936838    5.81575925612347
C         3.66420347909097    9.69400535645328    7.84146764745580
H         2.93727561872113    8.89912865538742    7.76327710439617
C         4.34646997388751    9.89823008381368    9.03040915573061
H         4.14845618875414    9.26464568668293    9.88205751501539
C         5.28795711868231   10.90955913111139    9.12226160479543
H         5.82802499671204   11.06289678942270   10.04519816597424
C         5.54220388686019   11.72559308576886    8.03495537668866
H         6.28188983493269   12.51125135185961    8.10436105157612
C         6.43520709098880    7.93824923965885    2.40566506781051
C         6.18794439508323    7.98833752674918    1.03484165723148
H         5.40702255458107    8.63755314851802    0.65914104680592
C         6.93642104315078    7.21705881245366    0.16759177462616
H         6.73009240293464    7.24421989874253   -0.89368958644720
C         7.95363524263847    6.41149155521737    0.65786872311982
H         8.53992628397965    5.80628057347682   -0.01958016992531
C         8.22462459310143    6.38828422615467    2.01597713419954
H         9.03014604440083    5.77585579019308    2.39512439969540
C         7.47075692127319    7.14932367100576    2.89181060215645
H         7.68972803956755    7.13471638179854    3.95015841026211
C         5.66865524099528    8.27996631133161    5.11256715868963
C         4.86090520242638    7.27214226176681    5.62430910920858
H         4.03959338667746    6.88334648551190    5.03981242540327
C         5.10342581473048    6.77257429881008    6.89185310898618
H         4.47422107240711    5.98756634458158    7.28652692922492
C         6.14509069791066    7.27262884891653    7.65488498073086
H         6.32758525749204    6.87891480157666    8.64393100752829
C         6.95051337908141    8.28113206539292    7.15071592810880
H         7.76122700297361    8.67678739851664    7.74424870034337
C         6.71035612190220    8.78510621810332    5.88743884955803
H         7.33313511990078    9.58093940565901    5.48286242423768
C         3.75484956909350    8.54286041863415    3.01404839842269
C         3.41667946068988    7.25659737084933    2.60305602750546
H         4.18327129086891    6.49814708895484    2.51840932587352
C         2.10272770007149    6.95595864767388    2.29351902332606
H         1.84171565932140    5.95667905755930    1.97564065114925
C         1.12102823602349    7.93021513049049    2.38823098789298
H         0.09702717752463    7.68818318442736    2.14428321582917
C         1.45503935184134    9.21497274965934    2.78392377929575
H         0.69551007405103    9.98083073738903    2.84674083851435
C         2.76841091564384    9.52032022235145    3.09099108361661
H         3.04672354119215   10.52737269644987    3.37856802004482

