57
CSD_code = GIPVOS | q = 0 | S = 0 | Stoichiometry = C26H25IrN4O | MND = 6
Ir       10.43258159631971    2.94897731742498    5.39333988687077
O         6.35669321350276    3.85045138986972    4.86350785388615
N         8.46508897196967    3.66574074963428    5.71114961038107
H         8.05683942373646    3.96215092365241    6.59226242491691
C         7.55307370234431    3.58728800976928    4.76396467241588
N         9.26228823593540    2.24972398488010    3.51149348934857
H         9.79339094287477    2.23105460227432    2.64350557726122
H         8.90833736695141    1.30821570808037    3.65398857690901
C         8.11281560895085    3.15697942223349    3.38429552160963
H         7.29330285387672    2.71352235538891    2.80655671287652
H         8.43257881137954    4.06682135700348    2.86729190518963
N        10.98257135948480    4.49123909834254    4.23401397663055
C        10.29483117398829    5.62549429764484    4.11557824922954
H         9.40036322457395    5.70315569044375    4.71803691895113
N         9.98009805209173    1.43187823137738    6.64401274115844
C        10.67700002659008    6.65403088833980    3.27669667973608
H        10.08129995174868    7.55024530325555    3.21339850234550
C        11.83542927639869    6.50289610874815    2.52471162506320
H        12.16308391091105    7.28304473268607    1.85410266598765
C        12.56480433987275    5.33887101703580    2.65821404950630
H        13.47462792335832    5.20187068537233    2.09662277451026
C        12.12886315745890    4.33653170368116    3.52674956527138
C        12.83010409596154    3.09087382351610    3.78911413536935
C        12.23607983606732    2.26958959859825    4.77521626486881
C        12.89250302788820    1.08490842600938    5.09161185760805
H        12.47825770961869    0.43286248697502    5.85044090691467
C        14.07622364043606    0.69983485710650    4.47499397605093
C        14.62773579138728    1.52444295352978    3.49790631968583
H        15.54541894416817    1.23169667673871    3.00738785324127
C        14.01457414963665    2.71041960862398    3.15784387584206
H        14.46003070284055    3.33512305485483    2.39691890643337
C        14.76631522765649   -0.57126477219866    4.86746602387695
H        15.51978796792564   -0.36212557326754    5.62778572751587
H        15.26840798354940   -1.02207263380050    4.01372655590881
H        14.05959496939328   -1.28609560047393    5.28271242375140
C         9.32815502605626    0.31706126327050    6.31562570315926
H         9.09558541279542    0.17673075133002    5.26970530248124
C         8.95121515340553   -0.64933929290387    7.22531834008569
H         8.42005746028596   -1.52724263173255    6.89419035807884
C         9.26644874614167   -0.45964613732886    8.56508157589418
H         8.98272109972405   -1.18926370533792    9.30800163516226
C         9.95525005304731    0.68092886853015    8.91966356510862
H        10.22033241730500    0.85523099862715    9.94945596739061
C        10.30956619744319    1.61964386202639    7.94898572978543
C        11.04711626611660    2.84025998292140    8.20976625261025
C        11.28357735769670    3.64640058682125    7.07558344055159
C        12.00031948430913    4.82469144537087    7.25667924654218
H        12.20843004842943    5.46509388840198    6.41014498288537
C        12.46963879630328    5.21662241628966    8.50261034036763
C        12.21866587659127    4.40496715460014    9.60735766938837
H        12.57950020369704    4.70474876265796   10.58086487016146
C        11.51748329944311    3.22915409357611    9.46557881386152
H        11.33483899151354    2.61562639666725   10.33536527317633
C        13.25080727914215    6.48469553854611    8.66801052462380
H        13.15535801896315    7.11832616211047    7.79005320995054
H        14.30699969845693    6.25581904679901    8.81204182405595
H        12.90793594228777    7.03641406540475    9.54139656755839

