47
CSD_code = GIPWAD | q = 1 | S = 0 | Stoichiometry = C20H23ClOPZr(1+) | MND = 13
Zr       -0.14698358730911    1.67490031438484    4.15967969189811
P        -2.38573948165771    1.62383252660617    2.66275084591543
Cl       -0.86453745639788   -0.54160021622449    4.55519463834571
O         1.40713184598860    0.61667829122407    5.76946047883613
C        -3.45302842797349    0.17707377726590    2.38247852087675
C        -3.66105662050543   -0.41941539727770    1.14350903634051
C        -4.46945675530209   -1.53942483756626    1.04560311421032
C        -5.06129727133015   -2.07747300981555    2.17548576300932
C        -4.83975326835114   -1.49942785350501    3.41633608065054
C        -4.03411830523170   -0.38293762692450    3.52162804578273
C        -3.59072848016822    2.90812087956798    3.24411384328976
C        -2.79827992748540    4.05952559376768    3.88152562945454
C        -1.73031861654256    3.53595384426856    4.80414172441508
C        -1.89344921446302    2.50004614103333    5.76208350602625
C        -0.68706043617245    2.36959406785659    6.48035999638867
C         0.23962790178942    3.30386468645434    5.95652260639749
C        -0.40714545308458    4.02170098665458    4.92088312870559
C        -1.93454702562888    2.27148795634609    0.99032811713511
C        -0.61702945052374    1.59741204474256    0.58076119081766
C         0.39823923805207    1.71251141544566    1.68446478099494
C         1.13172730589476    0.64753536146294    2.25735663764276
C         2.07543087436500    1.19418480917695    3.15625347431790
C         1.89971352103385    2.59686606254488    3.18045778344005
C         0.85274588434678    2.91921686384932    2.27944677823582
H         1.04562703628726   -0.28905476798425    5.83216332673832
H         2.11666278008923    0.69497945165328    6.42564547463487
H        -3.20092195709560   -0.02310053909338    0.25109705358928
H        -4.63238837522674   -1.99526772696957    0.08103658782203
H        -5.68700135533799   -2.95220410052778    2.09220575805058
H        -5.28854165708467   -1.92556333261067    4.30028950230764
H        -3.83724369875864    0.05441057812679    4.49352798130453
H        -4.20688124271425    3.25605335302859    2.41017534455343
H        -4.25478873266398    2.45008110234567    3.98175845682873
H        -3.48748020101939    4.70212952585053    4.43922214985458
H        -2.33652831246968    4.68002578739072    3.10690607853738
H        -2.82015682870588    1.99784809362514    6.00960765305603
H        -0.54858449899690    1.75447202190681    7.36139093560428
H         1.20650466591346    3.54561596765741    6.38168002810573
H        -0.01674713186078    4.90316650509186    4.42804626325350
H        -2.73017824935551    2.10599339007324    0.25946439652489
H        -1.78363413901818    3.35217584741700    1.08605610016372
H        -0.78789582322537    0.53869073252829    0.36451230798119
H        -0.23056930467924    2.06557950316655   -0.33019962455479
H         1.07578718235609   -0.39053947169924    1.95261800370432
H         2.88787867204686    0.64879725216706    3.61963581539673
H         2.55485960106058    3.30857657437491    3.66829495324022
H         0.59563477711615    3.91870757114296    1.94934004017516

