77
CSD_code = GIPYEM | q = 0 | S = 0 | Stoichiometry = C42H24F3IrN2O2S3 | MND = 6
C        10.42474074273484    6.44603195148037    0.27375224874503
C         9.99789630021559    6.04064481456850    1.69932156378122
C        11.00571056575949    5.94383037634951    2.63852029051259
H        12.01424827466824    6.15869143993644    2.33364610208401
C        10.77837743810543    5.59708539644134    3.99134257886558
C        11.91869840889374    5.55276408282997    4.89807549708132
C        13.26607878082116    5.72912848154300    4.72479214317105
H        13.72887557788182    5.93523223820706    3.77686354397430
C        13.98522945419418    5.60457061980193    5.92649123018822
H        15.05353093720729    5.70736317152461    5.99568846195044
C        13.17956109522179    5.34035244002351    6.99297492691893
H        13.46848277284395    5.20029197750100    8.01582630086470
C         7.77113824360253    2.96148915309075    5.05087452888516
C         8.21307176387612    1.66789844287768    5.40138851438147
H         8.16701853939736    1.37376391754329    6.43834417662122
C         8.70670186964423    0.84700728261753    4.43394050506791
H         9.08590225723970   -0.13601734487215    4.67207543977048
C         8.70530462266602    1.27803759993518    3.08707155355475
C         8.21698332460731    2.58254270510801    2.79546298850377
C         8.12997772692755    2.98332207327981    1.44800518610489
H         7.70838991942213    3.94892507409642    1.22176730440492
C         8.56908482498011    2.16080891874966    0.44582397429909
H         8.50565949823960    2.48700046845731   -0.58095895285283
C         9.09868605255132    0.89661830355288    0.73747152158641
H         9.44867530973312    0.26576617859751   -0.06551936434744
C         9.15276769779126    0.46033014300315    2.03356395947433
H         9.53299869801888   -0.52266791370104    2.27140463895246
C         6.88042537220413    5.15642852172686    5.51890598359445
C         7.22441692986214    3.90251881418877    5.97256414121211
C         6.21761706260659    5.22783513688178    7.78474873073692
C         6.29259812735168    5.93317715351888    6.56144251675504
C         5.79882751528365    7.24094722073454    6.51634587509927
H         5.83887029583246    7.78002114752794    5.58277989564464
C         5.26858703784228    7.81169812594669    7.65005131373930
H         4.88808229152662    8.82173421822777    7.61664468710795
C         5.21135828055051    7.10043812323643    8.84949523621825
H         4.79103972220175    7.56750220777258    9.72751765299354
C         5.68090115536464    5.80559148649293    8.92516588102685
H         5.63439969033449    5.24688511852414    9.84720062748959
C         6.73917343022058    7.91064834323227    2.57034026891281
C         6.83609831506604    9.19170028110543    1.98548865748814
H         6.16735033262076    9.43856344136758    1.17597363393175
C         7.79774848585266   10.05129185615182    2.42088788378029
H         7.93725503157981   11.01712410236346    1.95823341444750
C         8.61913191384879    9.68467129793089    3.51303260379606
C         8.42941168449066    8.40185025497746    4.09697488855450
C         9.15509683400930    8.07453491915893    5.25955672825727
H         8.94991701978770    7.13657342578257    5.75021218094481
C        10.09296335486637    8.93735000994138    5.75909810944465
H        10.64826724209744    8.67091832238010    6.64620055910532
C        10.33397085284880   10.17056371034372    5.13892757900930
H        11.08691513027958   10.83199292261045    5.54015671434325
C         9.59597919527734   10.54354386035398    4.04797428307191
H         9.74350415120885   11.50773009179115    3.58348726332038
C         5.89851374514782    5.65040090876029    2.72598198194638
C         5.80279195891027    6.90949640564309    2.17525477413573
C         3.99331240011072    5.46691461743917    1.34149743011904
C         4.85330325627997    4.80522313472512    2.24853537806474
C         4.58920374271166    3.46777622642207    2.56111647233299
H         5.23339104279073    2.96009436830982    3.26208662958394
C         3.51914112213870    2.82796240802417    1.98014834752481
H         3.31573062202529    1.79452947494097    2.21863956565707
C         2.68566288142638    3.49802402992489    1.08317975504426
H         1.85123362177149    2.97665555196970    0.63855842208999
C         2.91331623009181    4.81962540603771    0.76054934985344
H         2.27070337013055    5.34584523881153    0.07156278879015
N         7.81326958530821    3.41459441921506    3.78786549283349
N         7.54717352521728    7.51870060944541    3.56758285145255
O         9.67073867716065    5.33794472909272    4.51526135904352
O         8.76820221837792    5.83853088090685    1.80354043818638
Ir        7.64186315456373    5.46415544761069    3.69372261674290
F         9.59447457048015    7.36434969671358   -0.24179740162203
F        10.40300110158842    5.39187447363160   -0.56205095535723
F        11.66066783938327    6.96614922568814    0.18952995754645
S        11.52768887474154    5.22878680545414    6.55796944073685
S         6.85699422288477    3.61469940021858    7.65851802402692
S         4.45952508450839    7.12152043420330    1.07492910869646

