87
CSD_code = GIPZAG | q = 0 | S = 0 | Stoichiometry = C23H56N4P3Rh | MND = 4
Rh        4.51937961206835   10.64168991848014    2.44076716193949
P         6.63376745947929   11.36019713044162    1.91560177795362
N         7.14031129375506   12.99859660999346    1.84731685323758
C         6.03310046052761   13.91376638353588    1.60748688867134
C         5.57837896728417   14.02326930807301    0.14756656648833
C         6.24460957453611   15.31001537803356    2.19110442665129
C         8.51931944390106   13.28964750832302    1.48039178540426
C         8.74447733498022   13.80116935038722    0.05617767018355
C         9.21258827400464   14.22922906364837    2.47731439039673
N         7.99302920452622   10.67143357736764    2.69254827038877
C         8.10209931325673   11.06180820955987    4.09361281526643
C         7.32911797246800   10.13525601607676    5.03446719460516
C         9.56118532888489   11.19654841461652    4.53515438386979
C         8.48654718169070    9.33170132126723    2.37728393841547
C         7.39988019515928    8.34078873064246    1.95273893387142
C         9.60294494898445    9.39961771445733    1.33190140335381
C         6.71232772896709   10.74654808994918    0.21315888391565
N         5.61842446680369   10.26405159767784   -0.26027653994425
N         4.60371512095307   10.05303473857652    0.51641706522649
C         3.37968345989316    9.83254564018143   -0.21831853574840
C         2.66346200803037   11.15085855986111   -0.55084027582073
C         2.18584415798497   11.82461847284172    0.73062974738776
C         1.65299883444433   13.22853795557561    0.48662048253274
P         3.45354311840735    8.63999465799733    2.93974761007769
C         3.63882816597399    7.17054951380612    1.83097939525059
C         4.13261524617010    7.82613446377719    4.45483149181087
C         1.64884111324252    8.45727726697905    3.31290234867658
P         4.07245779130712   11.74925268292876    4.38915673535394
C         5.19517124715947   12.99070918101568    5.17213295469770
C         2.62555706435675   12.86237066767331    4.10229072374419
C         3.47742659317838   11.00515309438340    5.97945342090352
H         5.19138896757186   13.44060572703961    2.14549795806991
H         5.48747916064447   13.02765156896105   -0.28019356930240
H         6.26658771548315   14.60594332676513   -0.45623631693033
H         4.60579554352040   14.51042172441230    0.11259232722566
H         5.29138127087251   15.83513456860661    2.21631934206641
H         6.92893525311426   15.89115595028245    1.57850020976573
H         6.63723252039699   15.26036709724704    3.20328024461418
H         9.01462694592020   12.31442200809896    1.55609876293837
H         8.21873709974860   13.18060357744781   -0.66355355817637
H         9.80922568081687   13.76401235464132   -0.16821547663921
H         8.41606710400549   14.83178759044889   -0.05471334901744
H         8.93394053807410   13.97769096793073    3.49670995548157
H         8.95896556747580   15.26911419858419    2.29349729001908
H        10.29182833320759   14.12724985901540    2.37911665079813
H         7.63881108590406   12.05379038755696    4.13868373245747
H         6.29887169513651   10.05430452637431    4.67916241471723
H         7.33211073975226   10.53547719785760    6.04640889033688
H         7.76671718457326    9.14011298883519    5.06541107993099
H         9.60655277513519   11.67597514241679    5.51070815693046
H        10.11686481244758   11.80125238709540    3.82447913119858
H        10.04508030088947   10.22575065013435    4.61454096224049
H         8.93869598941341    8.94339567041244    3.29567272250622
H         7.69901741559929    7.32216427450240    2.19619380603207
H         7.21538320095325    8.40148624983938    0.88416800183665
H         6.46831836724307    8.57858528526809    2.47170846077785
H        10.01540493363797    8.40590458501434    1.16959010907358
H        10.40038922163114   10.05660039551268    1.67209801658513
H         9.22085873007974    9.77452727214850    0.38813482108297
H         7.54221614694534   10.89078046042172   -0.46242367057585
H         2.69569376292351    9.21907654315592    0.37709264021005
H         3.62257981139714    9.30423373923969   -1.14874424527990
H         1.81771015956148   10.95013301028809   -1.21380364883431
H         3.36070658531414   11.80704798634103   -1.07684549698109
H         1.39829014164290   11.21369123478347    1.18277989281571
H         3.05391239024219   11.84513696154244    1.43815169024009
H         1.29813416298752   13.68088421622859    1.41052127505111
H         0.82184978690145   13.19838060953971   -0.21699242999335
H         2.42733436848499   13.86563376754274    0.06552846217710
H         2.92333723928992    7.20521358255725    1.01393345260679
H         3.48158819573246    6.25449204402337    2.39925704024755
H         4.64144058648942    7.16928549593753    1.40919096932437
H         4.08717271165082    8.49829569545034    5.30543280239862
H         5.17552451595163    7.57213830300587    4.27212428556355
H         3.57618757215771    6.91760762382376    4.68355782068419
H         1.37603660895873    9.12106723681713    4.13145314071695
H         1.40482935143883    7.43053976409385    3.58202316146846
H         1.07141087863277    8.74472491821876    2.43544054237603
H         5.69193970662939   13.57381452908349    4.40250064925950
H         5.94949791064732   12.47643234784876    5.76206733421082
H         4.62712459586189   13.65611189948183    5.82185740758002
H         2.88630337038784   13.59746705072673    3.34281173833102
H         2.34159493520141   13.37744512084387    5.01919860868429
H         1.78343369708527   12.27257957382836    3.74394374338502
H         4.28135666363028   10.43894396378403    6.44680071067518
H         2.63944877249108   10.33826786387092    5.78675476362505
H         3.15824453571817   11.79011570695922    6.66410661465189

