61
CSD_code = GIQCUE | q = 0 | S = 0 | Stoichiometry = C28H25FeN2O4P | MND = 8
Fe        8.27473448474575    4.84230644307547    7.09495529585668
P         9.97158661870882    1.72070248552847    7.53466161192539
O        11.19059478661378    2.95413212378943    7.48579356955023
O         8.81738923398397    0.43664663950237    7.66046496211052
O         7.77396268394122    7.66768500303290    6.78333992365303
O        10.64839857797446    5.84562016160434    8.38538592858108
N        11.02733704235953    0.70427901669871    6.65515209403656
N         9.82265731026140    1.95298251505207    9.22967761225548
C         8.85108786301116    2.73444885641574    6.51143843757084
C         7.43301310832311    2.67367204973279    6.47421882532230
C         6.97687965648450    3.60190251589590    5.52831157998521
C         8.11036916554908    4.20999996131891    4.92187492935289
C         9.26723616747223    3.66707296298973    5.51058281245030
C        12.27908148850931    2.62611019848431    6.76231262602165
C        13.36128659960199    3.43987611880187    6.51373626741582
C        14.40077632040958    2.92687570444310    5.74456964254118
C        14.34403775958132    1.63668435701184    5.25347109586760
C        13.25051667109752    0.81581904623585    5.50981138862290
C        12.21230575134854    1.32079632602893    6.26694201737422
C         8.19010634493380    0.38693084440496    8.85316753890825
C         7.11360355049346   -0.40985571728230    9.17127744058003
C         6.60027083885351   -0.33225641297246   10.46270529101694
C         7.16417643255563    0.51597981132315   11.39605259431448
C         8.25565630688983    1.31690350057005   11.07337059381262
C         8.76383010268722    1.25127114075129    9.79101999173132
C        10.82416492727169   -0.66307124292011    6.23119834311089
C        10.61362320541583    2.77904124519336   10.11380847221449
C         7.90942907205425    6.53419271701865    6.90084774313873
C         9.72266127892073    5.39722472722804    7.88576447371229
C         7.37014038037300    4.87860581255246    8.93412889027333
C         5.98033188916470    4.46843024199180    8.69339937791000
C         5.53027556457268    3.19760173902456    9.06427863637719
C         4.22689304350622    2.80734589705505    8.82692415614287
C         3.33767907051049    3.67634064160666    8.21548575505522
C         3.76186613650099    4.94609533893305    7.85522742333241
C         5.06351453162183    5.33884711237070    8.09492280182977
H         6.81446692374722    2.01304031311111    7.05650395034898
H         5.95089508901986    3.74844133820952    5.23641686983787
H         8.08604089974910    4.86752254987252    4.06833730714524
H        10.28215999301500    3.83049903421686    5.18676964034431
H        13.38760783075924    4.44426197731264    6.90521282359312
H        15.25761672513589    3.54742138417630    5.53242121089677
H        15.15902000866283    1.25297755439976    4.65867877411891
H        13.22351531736686   -0.18774165494225    5.11609494997981
H         6.68502801885105   -1.06886493004054    8.43291247802470
H         5.75224909717406   -0.94272903638308   10.73202560024406
H         6.75333780380115    0.56676087697808   12.39283229629600
H         8.67906591097635    1.97859582279118   11.81229121342263
H        11.62051268804826   -1.29915986603461    6.62638571536896
H        10.83295582491786   -0.71725106089447    5.13964030779555
H         9.86821861816718   -1.02491830362838    6.59246246858064
H        10.96589520498775    2.17865257693089   10.95642852694767
H        11.46992013203262    3.18194925897019    9.58470972557455
H        10.01783660123348    3.61342662483895   10.49359515840813
H         7.41708495771590    5.85289273403781    9.42237147186435
H         7.88535723665084    4.14251248426716    9.55368341669820
H         6.21142959228946    2.51591375690680    9.55371594542905
H         3.90323114785846    1.82007749004323    9.12415308843828
H         2.31930152638413    3.36971640702995    8.02781308922991
H         3.07011747008841    5.63246519175494    7.38826034980764
H         5.39136141505884    6.33009759359004    7.81550347763328

