61
CSD_code = GIQGIY | q = 0 | S = 0 | Stoichiometry = C31H24IrN3O2 | MND = 6
C        -0.20857267681283    6.87167956265071    0.59526035935271
H        -0.49668475008424    7.91887239029473    0.72408673724524
H        -0.45088267308286    6.34320276895725    1.52244324647817
C        -0.85625508178545    6.21761243451221   -0.64005011180082
H        -1.46357514515167    5.34270619995957   -0.39133925745299
H        -1.46200087829732    6.91772978539163   -1.22432732019036
C         1.38980493857002    6.16804822125876   -0.79888711552623
C         2.62107040928389    5.85300867284065   -1.45650363109761
C         3.90179736371437    6.04878151451930   -0.84366748217395
C         5.03429504598948    5.66888885900402   -1.62223361647310
H         6.00170406848723    5.81432013745125   -1.16304973659048
C         4.92139163730566    5.15257121343895   -2.88041690301032
H         5.81072625411590    4.88338249418614   -3.43406994905474
C         3.66265585591731    4.96780348176109   -3.46255573270682
H         3.57790800071177    4.55903627839744   -4.45798897655370
C         2.54407365600484    5.31132098507601   -2.75304807570142
H         1.56409146579635    5.17477040355836   -3.18583244074114
C         2.95192103952378    4.76481085178997    2.61775904867128
H         3.70712496898707    4.72264125240182    1.84487837280973
C         2.61903775594999    3.64472877464960    3.35476336081616
H         3.10945139626230    2.70420267574889    3.16202241141030
C         1.64627283161324    3.76066854544435    4.33944302648352
H         1.35769182415888    2.90576680293162    4.93235958925187
C         1.05657433773405    4.99208509621219    4.54940101351164
H         0.30260670003094    5.11040336549856    5.31085726548415
C         1.43709201103252    6.08651860291312    3.77351058239798
C         0.90579242216333    7.43654107979594    3.88925570244140
C        -0.06773265157590    7.81918782977444    4.81157107473936
H        -0.48222429194272    7.10089027711510    5.50412836954365
C        -0.50917540478069    9.12565399062664    4.84482667800952
H        -1.26233423798237    9.42543628743622    5.55881542189510
C         0.02086016205856   10.05324118674348    3.95992208116104
H        -0.32285480994550   11.07785396488057    3.98942489364714
C         0.98741162887397    9.67566933358105    3.04311000020437
H         1.38648079941453   10.42250112537909    2.36963177227384
C         1.45619389717290    8.36651000230581    2.97692045191382
C         2.58908312918980    9.51075832457674   -0.55249803230241
H         1.69314023121733    8.96103737233125   -0.80404927680493
C         3.03659629022910   10.51916214742205   -1.38251785222861
H         2.49617107649492   10.75854602799682   -2.28430357891455
C         4.19264426932110   11.20361436581693   -1.03095959318269
H         4.57844233239602   11.99311297166088   -1.65808555245853
C         4.83706917100866   10.85223407002560    0.13743134664279
H         5.73758161423124   11.36474667765683    0.43399721340722
C         4.33189451441083    9.82420788397125    0.93447047499418
C         4.91887171595439    9.37160406501751    2.18511554062514
C         6.03932751019678    9.95352975377490    2.77907024723148
H         6.53734175752809   10.79101371727304    2.31266393073919
C         6.52143779826023    9.45984920455392    3.97297209495290
H         7.38931014875151    9.90835927042161    4.43420532346090
C         5.88724852239386    8.38533769218327    4.57891971630799
H         6.26465934559369    7.99930649345935    5.51560796887753
C         4.77578062746646    7.80490408879056    3.99201955891603
H         4.30238382936325    6.97059918717375    4.49198175819176
C         4.26374375879443    8.27610042647330    2.78725190645961
Ir        2.75560063962667    7.54326167436407    1.67760523218293
N         1.21084280247831    6.77813522489756    0.32519371703580
N         2.37854003174400    5.95033077143577    2.80791666786076
N         3.20812354623077    9.15833824919126    0.57218025611419
O         4.10450082209638    6.49898158802596    0.32815633477493
O         0.24192664559126    5.79838230302366   -1.43116651355172

