61
CSD_code = GIQGOE | q = 0 | S = 0 | Stoichiometry = C31H24IrN3OS | MND = 6
Ir        8.91564640313055    2.18659065997980    1.65381031493343
S         6.18069918878316    3.94887984908117   -1.82573523554916
C         7.61186702494613    1.29134608078774    2.90008655926626
C        10.43190542185774    1.41479102930431    2.72279314454595
O        10.26522167566091    3.30221951012064    0.36474477796296
N         9.41895180073766    0.66256998905272    0.43159506901405
N         7.39126205624272    3.04540232731358    0.28497645558618
C         8.88632419461287    3.46175315623792   -1.59769732946069
C        12.33070262377137   -0.10630511205540    2.53505042653818
H        12.89549354389612   -0.83797627892216    1.97603434799549
C         5.66394653064212    0.41868541445219    4.73520098426074
H         4.91650586525194    0.07525445918443    5.43530291028257
C        11.31382988490698    3.47117276801729   -1.69781475363020
H        12.25575060153828    3.42098146041885   -1.17034681146207
C        10.64083719958865   -0.97578693635478   -1.44900148751619
H        11.12585574957356   -1.59229074811208   -2.19056593655073
N         8.54885460169173    3.70269068140860    2.87943941538052
C        10.04409514515741    3.65305381546501   -3.72457083025218
H        10.01096021481197    3.74627758799249   -4.79914655071805
C        12.75584799452709    0.25957686369658    3.79506520340409
H        13.64865866682055   -0.18061598355840    4.21469393107750
C         7.64177686207534    3.50288326437512    3.86801060303589
C         7.09189157380482    2.15543866338863    3.89243259105287
C        11.27103053550450    3.58787588951996   -3.05748272441858
H        12.19083496128115    3.63084658499534   -3.62446630399318
C        11.17629758187258    0.46224026780983    1.99636077255248
C        11.26044982883765   -0.70004504072777   -0.24717488881041
H        12.23860739588208   -1.10065763765358   -0.03664780217023
C        10.63210473045733    0.11805164149031    0.69181488672011
C        10.88675312828178    1.76129511418842    3.99024399823599
H        10.34109773573005    2.48156732228131    4.58472613887916
C        10.13883762552867    3.39122987559401   -0.89854110707139
C        12.03127835468147    1.19192489873403    4.52250879777039
H        12.36284954349334    1.47535986350746    5.51160416850834
C         7.91720006893183    5.77114974547824    4.61003352897237
H         7.67078104708340    6.57834361190708    5.28327946352228
C         9.37732637750926   -0.44956368020509   -1.68075463090518
H         8.84459169374634   -0.65047451592647   -2.59603971824626
C         8.81244440885837    0.35796490860655   -0.71370791085895
H         7.82764388996191    0.77559552241044   -0.86809415729120
C         7.12288609852523   -0.01138012661089    2.87057576614434
H         7.49966593359957   -0.70768672745572    2.13345209876826
C         8.88703386574131    3.60277012965144   -2.99456592114068
H         7.93156398623379    3.65690448641337   -3.50078670380154
C         7.31247997135544    4.53629249798005    4.74415858919018
H         6.58878824901219    4.36693661881471    5.52506950361545
C         6.16414378540587   -0.44438818873843    3.77099110712431
H         5.80301682222210   -1.46231135894868    3.72523928944309
C         8.84986401376730    5.95297010698115    3.59670710240095
H         9.34841725469968    6.89905565643750    3.46042186207750
C         9.13382408929433    4.89196503661558    2.75880446050135
H         9.85602118036060    4.98309364728165    1.95903846667114
C         6.12650345411637    1.71678006286539    4.79806824794098
H         5.73414292290552    2.38551129340824    5.55049678461096
C         7.62926382276954    3.42548285529680   -0.91737676254001
C         6.01035488227734    3.07077271780833    0.69233849375548
H         5.92792899615955    3.51274001732287    1.68925953063485
H         5.65758581908998    2.03379873568601    0.76635473442782
C         5.17255650578705    3.86510477975453   -0.31744101024385
H         4.98558057477768    4.88695985339379    0.01602266580461
H         4.22546404022599    3.38373101275910   -0.54974861598027

