64
CSD_code = GIQHUL | q = 0 | S = 0 | Stoichiometry = C15H42O2Si4W | MND = 5
C         1.57970509832614   10.13965920833514    9.20200306907852
H         2.48332195153488    9.74677569980215    8.74397772157123
H         1.65776083961374    9.97531388540860   10.27148311017289
H         1.57287180076186   11.21434990952959    9.04194225420743
C        -0.14223694168210    7.12571827057136    5.13866739243570
H         0.41503528806697    6.57921536697564    4.36688314166440
H         0.16216027776602    6.71630453155099    6.11143296864717
C        -2.47706809942648    4.97863778560432    4.81758564697769
H        -2.19706552430549    4.45737757809714    5.72737581954453
H        -1.99248375785469    4.47153272261383    3.98952092292937
H        -3.54778099524587    4.85856646970943    4.69077856179278
C        -2.58810915298549    7.61204852912670    3.23486623331288
H        -3.56408317528344    8.08122369056933    3.31661305164852
H        -2.65927789357459    6.86122664345417    2.45397848176628
H        -1.86855987849619    8.36810021471963    2.90517909089600
C        -2.95877728472814    7.56518362629662    6.39163010953393
H        -2.33948249279056    8.28014693941833    6.93069015979762
H        -3.23994727844806    6.78237036755946    7.08947247658284
H        -3.87294225272601    8.06826865492064    6.09145205067122
O        -0.00005694183143    9.29970906574643    3.28818060394884
O        -0.00004449473349    9.30004024654406    6.90945342397001
Si       -0.00011745169605    9.29987179123686    8.50839332839320
Si       -1.99641512946387    6.83634337110216    4.89132346128139
W         0.00001046723322    9.29988473830237    4.95994661102605
C        -1.51740473812289   10.24799704416035    9.20198769823563
H        -1.62902888781471   11.22703531943299    8.74406989854231
H        -1.41419801450533   10.39764134310944   10.27149706197800
H        -2.44463294280858    9.70465856782994    9.04179597840014
C        -0.06271133582778    7.51175861865172    9.20186252166127
H        -0.85478603871972    6.92566252539230    8.74384974810204
H        -0.24401939808418    7.52628887631735   10.27135355217620
H         0.87141970815764    6.98035625066802    9.04173695293046
C         1.95406771809887   10.26378358983895    5.13829418517342
H         2.14855447350749   11.01955966114132    4.36638613582885
H         2.15646552362993   10.73230103503608    6.11095811982812
C         4.98090807606431    9.31507363405645    4.81728407815169
H         5.29226741116257    9.81852472115224    5.72692015252972
H         5.17803999236189    9.98788775245539    3.98895201405471
H         5.62009227820065    8.44765642463598    4.69096756383461
C         2.75555513970338    7.90249325538290    3.23453611357695
H         2.83754531027492    6.82269126283774    3.31616645363736
H         3.44115953127916    8.21660076620765    2.45357486989478
H         1.74086990267294    8.14743545016345    2.90512830721092
C         2.98144550525624    7.60501331550890    6.39139080063424
H         2.05258202340005    7.78391568380799    6.93041915048967
H         3.79993838170639    7.75307111176782    7.08923031299615
H         3.00293575125988    6.56175307537189    6.09134383572563
Si        3.13171943103364    8.80267313481801    4.89096388681019
C        -1.81185226049343   10.50993986016408    5.13820120290278
H        -2.56349451088885   10.30071347646849    4.36611066206343
H        -2.31894395101930   10.45092622406484    6.11077265433777
C        -2.50368330637880   13.60558501148260    4.81740983062003
H        -3.09533994474562   13.62354330938213    5.72705074449627
H        -3.18493434779720   13.43960019939654    3.98915140314921
H        -2.07230673011520   14.59292208800758    4.69088856970751
C        -0.16743851649739   12.38494078926840    3.23495950315949
H         0.72683431113021   12.99562446107451    3.31671837946426
H        -0.78204856153342   12.82185256531873    2.45395932059822
H         0.12760006028575   11.38372579989620    2.90542523722505
C        -0.02314051854268   12.72934543171225    6.39178867170054
H         0.28659532502980   11.83546145234271    6.93060059650112
H        -0.56075733222493   13.36384884007622    7.08978988833305
H         0.86949329248943   13.26987528404542    6.09188132195998
Si       -1.13528478861999   12.26039348036461    4.89129292952814

