91
CSD_code = GIQJIZ | q = 0 | S = 0 | Stoichiometry = C41H46OP2Pd | MND = 4
Pd        7.86944647022951    2.90747330690658    1.01011122486182
P         6.59213324400815    3.58186922269296   -0.82432874843449
P         8.75480653480509    5.07707529368351    0.98248889280713
O        11.48726538031285    3.11322648064330    4.61874685218431
C         6.69717787291979    5.43521791860494   -0.87388368011250
C         8.11971303467969    5.88749276576329   -0.56813653312462
C         4.96518334387665    3.24306324508551   -1.56092327204635
C         4.77834320888532    1.97811577196937   -2.11643426353303
C         3.55649441809273    1.62191540010799   -2.65069680938920
C         2.49962394532092    2.51905498449210   -2.61818093923350
C         2.67017050816523    3.76608341492037   -2.04133361694741
C         3.89477202343144    4.12862845616120   -1.50789982381063
C         7.71378485124353    3.16943739901255   -2.20417543174665
C         8.93874901571987    2.58200770430910   -1.89452431816626
C         9.84243941200878    2.28672108644035   -2.89946826175238
C         9.52563241157539    2.57066140683571   -4.21821845962237
C         8.30624720153037    3.15038981529524   -4.53141656628808
C         7.40131081366074    3.45168335572006   -3.52987963033384
C        10.33569423668399    5.93356297767638    1.24804158942496
C        10.84463494553391    5.90296234078978    2.54463329320138
C        12.05923491784969    6.49073704583781    2.83545365474269
C        12.79140788064072    7.09734552375169    1.82702605640317
C        12.30576768707182    7.10451892188446    0.53043283430187
C        11.08497778784487    6.52205622484650    0.23552400521438
C         7.67009457748751    5.89128915383482    2.20699134501799
C         6.59576094652209    5.15856557484731    2.70980920127400
C         5.73085622689452    5.72916348028612    3.62640274393461
C         5.93645395462601    7.03084666511517    4.05453779796133
C         7.00138561604943    7.76410013127546    3.55654069770930
C         7.86361502322363    7.20128700244903    2.63288875640331
C         7.41845627931790    0.94030779561080    1.60048516858476
C         8.46533223112772    1.44652205414753    2.40039424015596
C         9.83959368731529    1.34772628342047    1.98362449988813
C        10.85972264534237    1.87310836612269    2.70710015213313
C        10.58271929575317    2.57645830806115    3.96645427780621
C         9.18685488586726    2.60962835713391    4.43205273437832
C         8.20314238781062    2.08457249878432    3.66210367714222
C        12.30760529591137    1.76015546902272    2.24665547009772
C        12.88058823085882    3.16609285799288    2.02788173311932
C        12.45384499001936    0.98582283719223    0.93194871798570
C        13.11744185396003    1.02934496652663    3.32597769783486
C         8.89413352268143    3.22694022644659    5.79452997721234
C         7.41011210089846    3.15856279750243    6.17122745002510
C         9.69244058567556    2.45861698981894    6.85747047600263
C         9.31024856425232    4.70369170790042    5.80469758097532
H         6.37657878989587    5.79708594814289   -1.85629332228912
H         6.01567494724993    5.82645933268016   -0.11044664598732
H         8.16749173660697    6.97569722082084   -0.45712099134609
H         8.77804339520814    5.58521151764799   -1.38970689619080
H         5.60796772177489    1.28203939728654   -2.12610603026022
H         3.42265221888267    0.64411090845798   -3.08971865279347
H         1.54236248714862    2.24263868220963   -3.03444576078911
H         1.84397110070150    4.46137396164165   -2.00489521569344
H         4.01364882956929    5.10097951942876   -1.05277765553830
H         9.17806620913887    2.35639044486972   -0.84424302244200
H        10.79268280990425    1.83288350286710   -2.65826068350577
H        10.22851750712963    2.33741114157749   -5.00426455800582
H         8.06070959886287    3.36791499306550   -5.56074439683094
H         6.44655198080893    3.89747444297720   -3.77397702214875
H        10.28068178606181    5.40277491322436    3.31804703494037
H        12.43960702713637    6.46298961483583    3.84523999242169
H        13.74440665764953    7.55436599514271    2.04851053236694
H        12.88183615325435    7.56441262096271   -0.25986275003735
H        10.72504984507600    6.52797201436989   -0.78306443710286
H         6.44078927988177    4.12031656837852    2.37654628674852
H         4.89809183727861    5.15919577258535    4.01315809010516
H         5.26871974100672    7.47278921282486    4.77914575478228
H         7.16189745953256    8.77842732149931    3.89165205164404
H         8.69837579223651    7.77254933857461    2.25094576402133
H         6.43164941982557    0.81662720151598    2.04621562891023
H         7.65708968662770    0.21852255176576    0.81824961535959
H        10.02563753132478    0.77995987173571    1.07555833947466
H         7.17044094504815    2.07954939494606    3.99512561762463
H        12.84868489257364    3.73029217688573    2.95377253430889
H        12.29840219705171    3.69792028246090    1.27565357881239
H        13.91340155108154    3.10462137531367    1.69010829367487
H        13.50716875230983    0.94090853474296    0.66155994661907
H        11.92213306751381    1.48462764542416    0.12320697563769
H        12.08981848250754   -0.03531582877210    1.02822163762433
H        13.08128309424909    1.58389302976981    4.25818745996947
H        14.15631450276771    0.93434370422616    3.01613227605765
H        12.71119297541713    0.03314650359287    3.49453020151802
H         7.27342154119562    3.60097859667126    7.15625513628490
H         7.05918334233716    2.12948331859162    6.21574502269448
H         6.80001024955510    3.71957608486292    5.46587792062471
H         9.49221291408115    2.86780128881598    7.84578097239689
H        10.75609852732303    2.53801728382870    6.65627768481775
H         9.41276256801393    1.40627498533866    6.85269434743517
H         9.11811922322518    5.13873419248524    6.78382029381890
H         8.73884073260711    5.26298543534216    5.06353916802404
H        10.37064484378513    4.79228439756012    5.58943743806445

