59
CSD_code = GIQNIE | q = 1 | S = 0 | Stoichiometry = C22H28Br2CoN4O2(1+) | MND = 6
Co        6.37684065083799    3.93111913136055    3.53555000127159
Br       11.92493879000023    2.59808348602235   -1.09690533150546
Br        1.17139721180292    5.43836268994356    8.52836521657036
O         7.26200262670796    2.47225358161942    2.69267331375067
O         5.43423778773517    5.37469909859409    4.29635189430370
N         6.67128069126710    4.97144050435293    1.93187340162118
N         4.67938349783718    3.27540195359212    2.60842763154660
H         5.10338067468916    2.81076872766108    1.80018918097167
N         6.15117285156674    2.93667507896312    5.15872705508505
N         8.16811661035059    4.56039573598546    4.34077895764818
C         8.54242609587826    3.69346839714639    1.08812465133832
C         8.24517583805105    2.53123920920865    1.85759503952033
C         9.06093549256397    1.39158089375253    1.65782243563808
H         8.82242126676501    0.49530969316167    2.20943706570682
C        10.12687500635306    1.41618181284786    0.79802461965035
H        10.74318490242829    0.53969909936195    0.67179429591459
C        10.42487814726088    2.57903187350992    0.07890323258756
C         9.63624901651760    3.69441345473345    0.20601554391879
H         9.85120799235068    4.58193331772114   -0.36967916275502
C         7.63559417184085    4.79063238884928    1.09567303037270
H         7.74228392266512    5.49142516945782    0.26561749614902
C         5.66228366493075    5.94592711870008    1.58079724156778
H         6.03978286588758    6.63583062921426    0.81864299967482
H         5.38434848560671    6.50771166652109    2.47226724246273
C         4.43692953187333    5.20538464411842    1.03432307286766
H         3.70518181773477    5.93825232061826    0.69400288807553
H         4.73962903096520    4.60545041387802    0.17123491830084
C         3.77346819459508    4.30998136979705    2.07586475735525
H         3.40607936388864    4.91285306167414    2.90841206209745
H         2.90993140182560    3.82022351650704    1.60800585247916
C         3.90519499146204    2.23911593173084    3.30145901379228
H         3.14810635751896    1.81498937893262    2.63506959366242
H         3.40011703504705    2.66540679852373    4.16684887453173
H         4.56688184751915    1.43956964486739    3.62638576138482
C         4.36877977402298    4.26177972332686    6.11860842273221
C         4.53355470684930    5.35155295749238    5.21806796997099
C         3.67440384856074    6.46618003807725    5.37889521484970
H         3.80513923256596    7.30821498963211    4.71672676420940
C         2.70094526853055    6.48559154291598    6.34163669111163
H         2.05035317816654    7.34073700763057    6.43954285975924
C         2.54219422230055    5.39524482795930    7.20459395113540
C         3.36989767765704    4.30606328010070    7.10627890018949
H         3.25564723680480    3.47217596324558    7.78219772048330
C         5.28443200877006    3.17604370876898    6.08239121536029
H         5.25944551990230    2.51630324707873    6.95121807053140
C         7.15753983058386    1.93950169597788    5.45591358630318
H         7.38222182254218    1.37759179036561    4.54934984426667
H         6.79875915234067    1.25039680268023    6.22756307565801
C         8.42292233793520    2.64412184429184    5.95540335924923
H         8.17741143928345    3.24850715278224    6.83060514267428
H         9.15107234129339    1.89257650686003    6.26097689236277
C         9.06081841628563    3.50719245845862    4.87033962682505
H         9.96379806514628    3.97842124940381    5.27792836870521
H         9.36314007168720    2.86178787613972    4.04396155304521
C         8.07104892871946    5.68420371557340    5.28214961281765
H         7.55705860308916    5.37487122356400    6.18920798521375
H         7.50448127827027    6.49450893656292    4.83036782627974
H         9.06635994965707    6.05028429564534    5.54868021007747
H         8.64465725470965    4.92913537253709    3.51542128863062

