53
CSD_code = GIQPEC | q = 0 | S = 0 | Stoichiometry = C19H19CdN7O7 | MND = 8
Cd       16.52265594648028    2.83225645497281    4.96145399209365
N        15.30990817111189    2.66708643281956    6.97052618378512
N        15.62426003897786    3.91704556398514    8.80382452877511
H        16.14782560400292    4.69399301176943    9.17599122534111
N        15.26832779129532    4.76394536390526    5.30768615621079
N        17.75110346073939    1.44852008293957    6.88773537935114
N        18.28597885559951    3.25778694730180    9.14830176397096
N        18.52715899411577    3.51132930279600    3.61241351090676
N        15.23760628373335    1.11105036072678    3.72576635976044
O        17.57896167225756    4.29951741451629    3.66202745903691
O        18.36881454296453    2.36224831791649    4.06512641020321
O        19.59043314900883    3.84114060507601    3.15181039378549
O        15.25351834440577    2.30375424262603    3.37541521231905
O        15.88374865499976    0.78599609409857    4.73345891869143
O        14.60116793700618    0.29870343238863    3.11098361281907
O        17.94039684202838    4.40499508847134    6.58090329642460
H        18.11922391255524    3.90077043152898    7.40064472081357
C        15.37139632291496    3.84857332339686    7.46227276274968
C        15.96248739881698    2.58187281560814    9.26789540610522
H        15.31093644140846    2.30410079082609   10.10412050701310
C        15.62836546433336    1.70628241278450    7.99372167277862
H        14.75178381578264    1.07746593541975    8.17981509606625
C        15.10549497782513    5.00682111157341    6.60773978640659
C        14.69867350625044    6.24555852063601    7.09085868550903
H        14.55945037281138    6.40520364638532    8.14900935456685
C        14.46080162549237    7.25974090434493    6.17498683162889
H        14.14787383507487    8.23665005029610    6.51349671805621
C        14.62962149851703    6.99817752966619    4.82562664031176
H        14.45541135304152    7.76412952380827    4.08682064881136
C        15.03649472993775    5.72581694571897    4.43727815349632
H        15.19579563681572    5.46487303230812    3.40053733533784
C        16.78330740511055    0.83508089340438    7.56122325387568
C        16.83343163146416   -0.51240919410161    7.88879788708884
H        16.01982475367067   -0.97613272668439    8.42545436428372
C        17.93635479246413   -1.24975907543297    7.49192422040036
H        17.99960211626714   -2.30434524311568    7.71671120010287
C        18.94810528715723   -0.61007803764311    6.79631243637084
H        19.82262006657826   -1.14707543220953    6.46523738479840
C        18.80580350102191    0.73998421091490    6.51546174715820
H        19.56539005762680    1.27871705334355    5.96659874959901
C        17.40184946784904    2.42164959500346    9.67905204039785
C        17.77834759280505    1.38848015513759   10.53276198846516
H        17.03183129719961    0.73117361256861   10.95033796279028
C        19.12029335839044    1.21978734963729   10.82186136845522
H        19.44354915999087    0.42219488930778   11.47381224253362
C        20.04163632661787    2.09223780631614   10.26111729119913
H        21.09663796337771    1.99442436288046   10.45902240203674
C        19.56892430113472    3.09646855711699    9.43535907600097
H        20.24141797848267    3.80885690315443    8.97667078052591
C        19.09141183108980    5.16756918522215    6.27417906580204
H        18.86668820797055    5.74955724594439    5.38174804451683
H        19.95708298185379    4.52957312690464    6.07128739159191
H        19.33241274157502    5.85183907171646    7.09572037888237

