35
CSD_code = GIQQEF | q = 0 | S = 0 | Stoichiometry = C12H12Cl2N4NiO2S2 | MND = 6
Ni        3.99502071293819    6.02518652404313    3.58962655158890
N         2.98687906841816    6.70973147256608    4.98117808910347
C         2.08963647989422    6.47440923607747    5.71113626306967
S         0.91232609924066    6.23445366667396    6.73955718351156
O         4.91417622182106    4.57581094307612    5.42057915696052
H         5.15957284500316    5.24604667722464    6.06612008472530
H         4.12845679687915    4.14669368977192    5.77290966073624
N         5.37610734137711    7.31889893175902    3.96488179667830
C         5.09315568050854    8.61984627150756    3.90725575197147
H         4.05273773036502    8.88321428759914    3.76538383241224
C         6.05775118515617    9.60354763604121    4.02657231893316
H         5.78724795529662   10.64501658664536    3.96784828488838
C         7.37838021740076    9.21937356714070    4.22122832875224
C         7.67357144175727    7.86451201406182    4.30120024398895
H         8.68451038638720    7.52487741262282    4.45479323175389
C         6.64191977272410    6.95399680259691    4.16656315082409
H         6.84290575802120    5.89198308086854    4.21409791224789
Cl        8.61985257996681   10.39604578916309    4.36555952938496
N         5.00288067789936    5.34073410535046    2.19765787267693
C         5.90605750171836    5.57314361727090    1.47403933664372
S         7.09016384917744    5.80541140675056    0.45182376042143
O         3.07694405790431    7.47455108837708    1.75802096658883
H         2.82068042927598    6.80437748300070    1.11671863185435
H         3.86595112340262    7.89282394931663    1.40001167141577
N         2.61355230267483    4.73030780637532    3.21487745258642
C         2.89886770857403    3.42971360941409    3.26927992010131
H         3.94027218357476    3.16785811053422    3.40663869095399
C         1.93558567815745    2.44452475049253    3.15175913368852
H         2.20814046466941    1.40344444538261    3.20782018195216
C         0.61362887274395    2.82673711657560    2.96231632051828
C         0.31583973826750    4.18122930571905    2.88571137662516
H        -0.69623701354214    4.51930617456568    2.73621441116374
C         1.34639746535958    5.09331762582237    3.01831131355997
H         1.14334736000796    6.15505431841114    2.97341055051063
Cl       -0.62628067302245    1.64812049719942    2.82039703720547

