39
CSD_code = GIQQAA | q = 0 | S = 0 | Stoichiometry = C13H18ClNO4PRh | MND = 4
Rh        2.52510601880326    8.80821859098889    4.08814999961763
Cl        3.43331272816301    9.64015354699446    2.21908683751007
P         1.21154897597079    7.88883818748816    5.66754757841766
O        -0.26495031995777    8.59990435871196    5.57507404076486
O         0.70631604335385    6.35920742159300    5.50388415519479
O         1.51448402913280    7.78706727596146    7.24352127703712
O         5.03076272460520    8.82333444042853    5.68515102909693
N         0.76815923734661    8.79715563154798    2.97516544317990
H         1.01393678763328    9.00221564770268    2.00150653877196
H         0.18351129684300    7.96356015272947    3.04929464658142
C        -0.34993508066913    9.80156668261705    4.90567864532987
C         0.19852118817791    9.92861118999722    3.61895624167089
C         0.13404699578196   11.16645226824903    2.98235235332071
H         0.57575359615585   11.27429556379282    2.00249385166445
C        -0.46310337108391   12.24665535435916    3.60620757144793
H        -0.49562820132782   13.20041195806838    3.10346019799736
C        -1.02604376058409   12.10313354624929    4.86293140320973
H        -1.50333029785043   12.94143394277766    5.34502461882161
C        -0.95772576523742   10.88436135736445    5.51716800186779
H        -1.36479459345736   10.75688242401359    6.50781564155228
C         1.18574143173667    5.56013594213135    6.58836275254525
C         1.10569693786147    6.52945152872357    7.80558900103393
C         0.29804440174011    4.32766354287545    6.70274390579515
H         0.46911008712361    3.68273407821516    5.84491926321133
H        -0.75066550107837    4.60625046711207    6.71551849661245
H         0.53869474641714    3.77913306696057    7.60896256917253
C         2.62477046221097    5.15456868626549    6.27558338811217
H         2.64888011059081    4.68721260823643    5.29370135781208
H         3.00353571071623    4.45158591644908    7.01133315476269
H         3.26103584590177    6.03850059742843    6.24154867026822
C        -0.32231552118054    6.68256693225736    8.32295531842027
H        -0.35827407318897    7.53743083068287    8.99411352817452
H        -0.63640186260106    5.79478315907674    8.86423305829326
H        -0.99997121639380    6.87234727251610    7.49378946324249
C         2.05476844593357    6.18697727500243    8.94571591315170
H         1.87846582662278    6.86653262754215    9.77517388846008
H         3.08780461391767    6.29723240619608    8.63239944216724
H         1.88273565442825    5.16812224409566    9.28196753802890
C         4.07619566744799    8.84821127660098    5.04861921767369

