46
CSD_code = GIQREF | q = 0 | S = 0 | Stoichiometry = C13H25ClO5PRh | MND = 4
Rh        1.46797262144443    6.00760359260352    4.08022139875372
Cl        3.44474384324196    5.43486801153081    3.16395554121808
P        -0.49827499437246    6.07467314189044    5.17843495409338
O        -0.74047627583519    4.77734171147143    6.11897620333456
O        -0.95834586624677    7.34249711718264    6.08282108849306
O        -1.88597540798847    5.95284086361772    4.37031297253319
O         2.19214506827713    4.69975249581736    5.59238444842503
H         2.95209284337264    4.40384671779895    5.03487304635201
O         0.74345170076998    7.93679350807312    1.95054017286279
C         1.02081694103457    7.18137987206690    2.77023766809814
C         0.26911183146687    4.14802869259124    6.90502536594647
C         1.40649911904063    3.57936046564802    5.99171990043936
C         0.84906710159166    2.88362894547658    4.74368781389213
H         0.27315528276771    3.59201041794575    4.13737277140269
H         0.20689107670352    2.04834415685497    5.00717883741663
H         1.67624721703414    2.50892684957277    4.14157178205135
C         2.32222616947729    2.60919845548442    6.74605821390134
H         2.71836287493344    3.06437507407235    7.64926458979376
H         3.16186841545796    2.34585899486860    6.10488589126726
H         1.79793158229322    1.69603506265854    7.00657560684534
C         0.82428297790819    5.17236284828939    7.89733316642248
H         1.26927490393236    6.00849941966996    7.35977332398361
H         1.56837045803804    4.72632169683273    8.55029500132363
H         0.00650316181101    5.55458650183110    8.50297281380705
C        -0.46705309020516    3.04069597514041    7.66380906111457
H        -0.82466010689510    2.27531141736024    6.98192618328126
H        -1.32887504319085    3.47843896766480    8.16103081277957
H         0.17500745093889    2.59110837242171    8.41378619459527
C        -2.36753086537171    7.58335775927521    5.99479550218261
C        -2.72173324983965    7.09983365168040    4.55729985594957
C        -3.07407326789696    6.75528452824263    7.06732390409893
H        -2.95688606034282    5.69570390730162    6.85672232057976
H        -4.12902060660058    7.00909396294439    7.11733654066892
H        -2.61476347374825    6.96953575937584    8.02989378361331
C        -2.61173526384551    9.06829918560853    6.23648908762379
H        -2.41138458805696    9.29877981815750    7.27955145815859
H        -3.64509133985117    9.31844518647661    6.01252932533764
H        -1.95092354253675    9.67263063993039    5.62415295853687
C        -2.34747332613317    8.13788881502552    3.50113013903029
H        -1.34110155526200    8.50862886041033    3.68335933347053
H        -3.05164723572181    8.96467762819062    3.49982920609558
H        -2.35910703982049    7.66038336038975    2.52429261974368
C        -4.17049570469730    6.66448255038458    4.37396821315030
H        -4.38967484442906    5.78728655692949    4.97357647779754
H        -4.33512210264387    6.41186902945098    3.33003403120555
H        -4.84129778991972    7.47282945376374    4.65159041836133

