31
CSD_code = GIQTOQ | q = 0 | S = 0 | Stoichiometry = C10H15Cl2N3Zn | MND = 5
Zn        6.11430812078283    6.32858509065165    1.94812335276491
Cl        6.91545104308909    4.45453544927253    2.80375292703963
Cl        6.90173514367627    7.78547357196911    0.41209101810375
N         4.87871798554153    5.36776065644883    0.35080222382190
N         4.13223587592578    7.16180604676105    2.14971409167574
N         6.31666947729712    7.81222694898160    3.68326097130286
C         5.27732805368346    4.46698952700312   -0.52386573455975
H         6.16662048916075    3.91222027853249   -0.25780499810469
C         4.60305742334350    4.23494989225164   -1.71757147591976
H         4.96474768254699    3.49129442448064   -2.40922800747038
C         3.47028754686887    4.98199697945406   -1.99662075747212
H         2.92451411872758    4.83557266679905   -2.91689787262200
C         3.04727738327784    5.92486771667493   -1.07305093056412
H         2.16978441172940    6.52719805027401   -1.25295325579093
C         3.78378559899683    6.08786958244344    0.09721901525139
C         3.42973787277641    7.07659695544878    1.10562799324585
H         2.57091689570388    7.72539667094483    0.90964345043980
C         3.94188543390753    8.14420402738438    3.16166398897688
H         3.62446223672361    7.62107356198584    4.07105290515066
H         3.18465739840339    8.89282584612134    2.89123822476074
C         5.29557400220557    8.81644939887619    3.41632567121247
H         5.59765508905766    9.35349290179418    2.51309704859214
H         5.19666123419269    9.53603232719476    4.24258276700509
C         7.64350861661927    8.41575204582821    3.83856768202972
H         7.60007756289798    9.24563741929045    4.56189394283323
H         7.93633997643943    8.81942211936366    2.86656541027516
C         8.65673218209044    7.38189172240649    4.29807570736622
H         8.39629930584155    6.99267975092545    5.28078608127469
H         9.64539861957457    7.82909754043855    4.35170000015687
H         8.68722438761069    6.55130731407587    3.59702646615829
H         6.09104883130730    7.32629351592453    4.55158209306648

