75
CSD_code = GIQTUV | q = 0 | S = 0 | Stoichiometry = C33H35NOP2PtS2 | MND = 5
Pt       -3.58580221128294    7.32819809844745    9.44859999435019
P        -6.13794175859474    7.33732423831850   10.92539150184426
S        -4.49570201333396    6.94311265852782   11.95539365485534
C        -7.45557967105348    7.97252484435029   11.99626071219694
C        -8.64827960142035    8.37227234432826   11.40833086815648
C        -9.68306996799570    8.82529559384302   12.20396929723751
C        -9.52513392806978    8.88083515672838   13.58062950046993
C        -8.33415969873670    8.48188636041324   14.16382917397106
C        -7.29523165565508    8.02643376593678   13.37101673426692
C        -5.88666882440954    8.74454227894742    9.76456686384043
C        -6.40315422110212    8.73715700866953    8.47001176367310
C        -6.34144365474216    9.88376655298181    7.69865466791358
C        -5.79717748519204   11.04675625487307    8.22059796246796
C        -5.31161394369598   11.06744677309080    9.51941744569012
C        -5.35439112320693    9.92204907022536   10.29244859436569
N        -6.85901185433753    6.07536205963467   10.19055509549287
P        -5.88565769803905    5.05754466292891    9.38639113375410
S        -4.84127776917684    5.88226005679823    7.89257706292698
C        -6.98568087215349    3.79736731467756    8.71238319910143
C        -8.36128437956284    3.93042878363346    8.81433232196437
C        -9.18116195921814    2.96130573381261    8.26411803285276
C        -8.62595005717271    1.87111960030123    7.61411008945459
C        -7.24902389751981    1.74340427426905    7.51065573036064
C        -6.42530170535540    2.70757574755641    8.05922774226960
C        -4.74874608978615    4.14556817438414   10.48407984360803
C        -3.37189237561335    4.18566261467932   10.31938936603447
C        -2.56102167078676    3.51374640582105   11.21681656079460
C        -3.12444743359391    2.80601500137076   12.26551277570748
C        -4.50131886293423    2.76214850583839   12.42130695886998
C        -5.31780509429239    3.43118551130932   11.52978893523587
O        -2.16360178544586    9.62115009757045    6.17540949271960
C        -2.50653379137028    9.31681928405587    7.52909005564778
C        -1.47537494119081   10.02801317747390    8.40059199129251
C        -1.83002748812443    9.98001609183413    9.88484400161711
C        -2.21899854222479    8.65151292909262   10.49062547930275
C        -1.62692853197561    7.40366581003844   10.25400561937033
C        -0.57107317330877    7.15945169220810    9.19474883028792
C        -1.20292188298871    7.09557913560350    7.79018296477685
C        -2.55958031988121    7.80005773186348    7.72146731665128
C        -3.24646424009811    9.64050125481639    5.28375352082351
H        -8.75362987873192    8.31804766152952   10.33339300586792
H       -10.61482879266325    9.13582177577633   11.75366828240948
H       -10.33565880567482    9.23584333288870   14.20039667779374
H        -8.21460980951579    8.52428104644477   15.23662583731138
H        -6.35772653657520    7.70832483866714   13.80743815054682
H        -6.86411284732680    7.83883880167084    8.08128143812324
H        -6.73161348182125    9.87134925149491    6.69136189168683
H        -5.76193630820369   11.94340215541997    7.61905878017449
H        -4.91125913033292   11.98263004176712    9.93177103106026
H        -5.00994124842633    9.93031213060160   11.31931199904628
H        -8.76789411112834    4.78824474908872    9.32997159595111
H       -10.25460438012445    3.05600804766697    8.34113667089296
H        -9.26868157108158    1.11684484024851    7.18408895554967
H        -6.82084889544087    0.89262045500975    7.00117766196527
H        -5.34835736957564    2.63008711810374    7.98518916565111
H        -2.93621316846559    4.74389900734711    9.49241352757508
H        -1.48738765011941    3.54651286840763   11.09994025727736
H        -2.48791776810297    2.28954375249558   12.96901338535981
H        -4.93681654762911    2.21269195239024   13.24299157520199
H        -6.39446768807762    3.42685689040755   11.64108530492931
H        -3.50411409568546    9.73953416287012    7.73927914764514
H        -0.49476562467258    9.60639465956967    8.19929630706313
H        -1.44066873447893   11.07339803279675    8.08548458992800
H        -0.97358137583786   10.34914811629911   10.46121907702642
H        -2.65352749805146   10.67603080319522   10.06042659291280
H        -2.63273742946138    8.78790110251444   11.49095089949584
H        -1.63863361900106    6.69108094632899   11.08318588147249
H        -0.06066011401884    6.21836533692939    9.40519942164740
H         0.17673714115693    7.95162053629711    9.25848589265049
H        -0.53974114416428    7.52414702795234    7.03436974285736
H        -1.36366864752757    6.04753567718335    7.52715366255550
H        -3.10241801725921    7.39845040838623    6.85613335265157
H        -2.82957525821256    9.86776072382299    4.30425582074298
H        -3.97208336014570   10.41549539959991    5.56192671294041
H        -3.76532005957760    8.67661369677293    5.23973484795473

