62
CSD_code = GIRBAK | q = 1 | S = 0 | Stoichiometry = C21H31O7P2W(1+) | MND = 9
W         0.49960770876659    4.83854886552474    1.99153400486423
P        -0.78989664376920    2.87079122003798    1.46139467882389
P         2.38281144048335    6.18099298250429    1.26291365165514
O        -0.97975946858195    5.87882302971843   -0.53515656180443
O        -0.43850138168548    1.35366976260405    1.87659899638911
O        -2.30558696216030    3.08471229471413    1.98040330470270
O        -0.85270780793122    2.68866714088364   -0.11910692538710
O         3.05056222749711    5.93271191778495   -0.17947209377577
O         1.89450283717231    7.69877061816744    1.27249941322679
O         3.73164501447996    6.29849459842274    2.10590063012937
C        -0.35010093286936    5.43592011636488    0.31680823857320
C         1.74852900993496    3.49964093116654    1.20972352527214
C         2.52378450896831    2.53815103071935    0.76263363964677
C         2.52203922388277    2.14185994798755   -0.69588330591542
C         3.43087979372794    1.81806346278352    1.67692980373239
C         3.36696515310901    2.07130403339689    3.05038993332094
C         4.19671375121393    1.41466561358241    3.93618204854671
C         5.11640639644695    0.48883226676945    3.46816565463176
C         5.19486696312398    0.23336749399710    2.11043467250944
C         4.36261010278860    0.88897425353999    1.21981211915555
C        -0.17647844883292    0.99590721456495    3.22667443117607
C        -3.37005473078389    2.17266768935385    1.69334188644730
C        -1.08722776866901    1.46544840934821   -0.83652904770656
C         2.29174072189047    5.70551245860936   -1.35777739757936
C         2.76477996821203    8.77557411171160    0.89520519892054
C         4.70946323082796    5.26401278112687    2.16797087031731
C         0.71983300784730    4.99304569881075    4.34490284872206
C        -0.58750056904155    4.56567113796336    4.02229989914442
C        -1.22830615518021    5.59844063960070    3.27127569365387
C        -0.31150154256434    6.65786367492169    3.13014703836355
C         0.89307245383083    6.28265393619239    3.78867602694939
H         1.39795560311059    4.50802002239423    5.03591769249405
H        -1.08583240162370    3.69764276911555    4.43487125428259
H        -2.27894728335753    5.62254982632392    3.01904440988467
H        -0.52381371482005    7.64067730637748    2.73431800749658
H         1.73453984801544    6.93726552800352    3.97835556722096
H         2.64475701173293    2.79748488743705    3.40838711489295
H         4.12943099734784    1.62148766834522    4.99402917090730
H         5.76548632809795   -0.02743109352866    4.15779265849138
H         5.91043130777286   -0.48377182572631    1.73808676456869
H         4.45171233692243    0.67228816396437    0.16765864455140
H         1.71016854135912    2.64569484971272   -1.21349297835495
H         2.38418787161666    1.06670904825804   -0.78691580058959
H         3.46621420406890    2.41736268107772   -1.16241774145371
H        -1.07062513117957    1.11022679810890    3.84274166640566
H         0.63600649025643    1.59903768246299    3.63418126475065
H         0.12391839116527   -0.05099391922158    3.21298713715488
H        -4.09990469520217    2.27933081249594    2.49557258818854
H        -3.01134493363996    1.14245775276065    1.65728580633800
H        -3.83616298500354    2.43449364016744    0.74311833046254
H        -2.15372051518657    1.25058904358801   -0.89914913871713
H        -0.56871579483315    0.63388268036671   -0.36372183943201
H        -0.69335426342361    1.62781022474304   -1.83876792197410
H         1.57021040414999    4.89933867372508   -1.19445742997739
H         3.00552871610256    5.42055704384990   -2.12994389275152
H         1.76436597840217    6.61104097074124   -1.66230630824085
H         3.44417565085685    8.46733493824510    0.10051145875591
H         3.34381275818600    9.10341076697627    1.75751435296665
H         2.12504770194406    9.58480080315135    0.54763036923720
H         5.00244412178489    4.95249480377779    1.16663981158149
H         4.33059343405334    4.40205025044894    2.71875663803505
H         5.56574291918565    5.69019786898385    2.68847946612283

