43
CSD_code = GIRDOD | q = 0 | S = 0 | Stoichiometry = C18H14Cl4N2O3PtS | MND = 4
Pt        1.74875503037419    2.53234730731515    3.84177875638628
S         3.31708207340903    1.51758837011382    2.61731187086972
Cl        7.54705157863608    5.87648879959055    2.21630443262716
Cl        4.46033999981258   10.03048403958079    3.65363528032489
Cl        1.24146494259004    3.86356426504602    2.01506672848231
N         0.50241149056954    3.62060502366123    4.96814165814462
O         0.66142903711657    7.74740609347794    5.54083591102853
O         4.53123849068043    2.30698507014836    2.74939272284037
O         2.63535988176920    7.96709905797562    4.59884858696309
N        -0.43181428197759    5.36538657996295    5.95723567585934
H        -0.53165003936432    6.34400563341132    6.20852399504166
C        -0.71588950737670    3.22752029023939    5.45167836352953
C        -2.57716847981083    4.23575243937332    6.66953528871470
H        -3.03965197475042    5.08248178013350    7.15081058251531
C         5.16622011127494    5.57197641440215    3.42323528003088
H         5.30206769581943    4.50300994983272    3.34394192050816
C         5.89669774830982    7.83979534790728    3.00731762309367
H         6.64120418640632    8.51848991957249    2.62380788204964
C         3.99029150674835    6.07294024440502    3.99527089008053
C        -1.32280378791531    4.33700959402741    6.08229794969792
C         6.09976224211012    6.46006935558579    2.93400165430905
C         2.96362644360984    5.22338475812995    4.49284777051659
H         3.15449389432651    4.14994698489280    4.50245456345330
C         1.78096175580838    5.73855073578504    4.93342494275994
C         3.76350637424905    7.45823761618997    4.05785154987281
C         1.62086282785970    7.19602808201391    5.04753547185430
C        -3.19818872619881    3.00613540949177    6.60666163856682
H        -4.17405881506830    2.88536759750809    7.05132084150322
C         4.73428892310441    8.33815885131077    3.56423475756925
C        -1.35817945361771    1.99346258979403    5.39368386814828
H        -0.87896589030023    1.15409179806246    4.91203048704673
C         3.74583534766551   -0.20070901163334    3.01898238946832
H         3.96943156428798   -0.24634150725527    4.07981789109160
H         4.61376244290268   -0.48231030639342    2.43422044024295
H         2.88991517155125   -0.82606645958106    2.79399310457620
C         0.65106092666620    4.90585923358221    5.28559263456504
C         2.99873215881781    1.30694959895621    0.84289292962970
H         2.17098206088062    0.61701397447859    0.72680679509114
H         3.90125545656708    0.93308578533311    0.37366256168637
H         2.73352801732885    2.27861190828410    0.43900799539799
C        -2.60011412629471    1.90516796935237    5.98133948248790
H        -3.13157203097251    0.96635869777477    5.96332516599259
Cl        2.27233773238653    1.17861011815555    5.63123966538534

