50
CSD_code = GIRLEA | q = 0 | S = 0 | Stoichiometry = C17H24NO4PSi2W | MND = 6
W         4.16489527432042   -5.43193650173568   -5.91808232937445
P         5.66609589311296   -7.12997008879717   -5.10751502611346
Si        6.08534466558756   -7.43886081425895   -2.17240026316333
Si        4.53076553801120   -9.70448334590110   -4.10359430994898
O         2.74917913317387   -7.47500424945482   -7.83668502184989
O         1.70065446242294   -5.47236081911044   -4.00141557153330
O         2.53616524412954   -3.16238746085991   -7.30533025535075
O         5.44310110484821   -3.20716721397056   -4.10976687763695
N         5.93297085035634   -5.35542171816042   -7.32907898812453
C         7.00470480540395   -7.13224521148553   -6.13810465085721
H         7.84840573402054   -7.79895183435120   -6.02793868560611
C         6.99674797797186   -6.18666901591086   -7.20616967431299
C         8.07359761494402   -6.11949798880151   -8.10892195939051
H         8.90313933104169   -6.79838444003030   -7.98067183199809
C         8.06026323317517   -5.20253409315236   -9.13204605690563
H         8.88067585496437   -5.14136118321906   -9.83141066954514
C         6.96282167585241   -4.35404356018195   -9.24445561807526
H         6.90372140655031   -3.61678723433227  -10.02829699179695
C         5.93849054000264   -4.47353319447024   -8.32540270299627
H         5.07589238106227   -3.82304460751620   -8.39601491421751
C         5.91801368435727   -8.38956721004702   -3.84220887354908
H         6.87799384668191   -8.86562198637530   -4.05774994815696
C         7.43571203554464   -6.12290683467497   -2.47072806071930
H         7.62281790003776   -5.52449273185955   -1.58455313259106
H         7.13240444429510   -5.44466085034694   -3.26615036832263
H         8.37974384799750   -6.57191441036589   -2.76743124916422
C         6.66313814535618   -8.64964020213103   -0.81996553248462
H         5.89217581538946   -9.36855564518357   -0.56865953206565
H         6.91197317248404   -8.10724276867855    0.08552007742464
H         7.54547188642516   -9.20420312381732   -1.12190597936637
C         4.45013617476695   -6.58783671223496   -1.71674773002174
H         4.02315005025322   -6.08687559745708   -2.58290535437566
H         4.60566105168546   -5.83842426247087   -0.94670872719055
H         3.71454328840197   -7.29090661017396   -1.34002805600772
C         2.79992316112826   -8.93291005102504   -3.98975452771103
H         2.55758944056462   -8.60652855902145   -2.98426880399711
H         2.03929243375879   -9.64642193773909   -4.29229765160570
H         2.72010700686196   -8.06752833507544   -4.64486364336090
C         4.74476961133407  -11.11132933330385   -2.83742800366480
H         4.16614061317625  -11.97729058763470   -3.13937947322752
H         4.39643699485747  -10.81516459082978   -1.85434165076244
H         5.77913272749761  -11.42366466557187   -2.74259990040853
C         4.81468373466715  -10.35603883351472   -5.87605210944420
H         4.77432549193828   -9.53397143337861   -6.58858079397221
H         4.05900708044755  -11.07869080486982   -6.16737841159463
H         5.78365693079027  -10.83546984274033   -5.98394391415909
C         3.28038516284538   -6.74359102949315   -7.13219509587716
C         2.62782260954971   -5.49776125319812   -4.68414054464312
C         3.15121029315754   -3.99503399188207   -6.80935803404162
C         5.00324864280069   -4.03661122920620   -4.76699257613892

