45
CSD_code = GIRMAW | q = 0 | S = 0 | Stoichiometry = C12H24Cl2N6Zn | MND = 4
Zn       -0.65329293190805   10.70401696391160    3.25624926494747
Cl        1.11830553851762   11.81305207841933    2.42757437575497
N        -0.74752228118378    9.21537055651881    1.85224409347056
N        -1.00613460888819   10.46173268761681   -0.06204660862162
N         0.66284608573689    9.00671997159971   -0.11144788826183
C        -0.33473660628677    9.53725868984860    0.66471979433004
C        -2.06420219967715   11.29538809495454    0.43259038978793
H        -2.66162714623023   10.73684634733344    1.15037428204187
H        -2.69653916199735   11.58815050490902   -0.40677370968618
H        -1.67717704905547   12.20036783945309    0.91475345403145
C        -0.24334747101644   10.89302225983120   -1.20961084319735
H         0.17432469030870   11.89348363712010   -1.03994346139133
H        -0.88235442911718   10.92452446164198   -2.09705663387116
C         0.84761772964052    9.82480683284691   -1.30457277805718
H         0.73886928839018    9.19667569058876   -2.19534846866584
H         1.84585873287626   10.27184656182769   -1.30811879450585
C         1.85395781486594    8.35957532356630    0.39036181941274
H         2.41791527046215    9.01660687901238    1.06024112712572
H         2.47938039770743    8.10750018335519   -0.46503639754873
H         1.60402376861663    7.43628430393148    0.90724142642381
C        -0.28810016210308    8.05777588755701    2.58405595180787
H         0.78554505415804    8.09686058138523    2.79323051253382
H        -0.52720518294966    7.13935426532040    2.03496627007580
Cl       -2.42757375343940   11.80867529612177    4.08508839030800
N        -0.55659990238040    9.21558555393056    4.66038765519274
N        -0.29663527520957   10.46152958187853    6.57474933748233
N        -1.96570095188496    9.00647678927317    6.62487968723661
C        -0.96863047170831    9.53724718915077    5.84823149562511
C         0.76043279582058   11.29575771911331    6.07893898086838
H         1.35775940335069   10.73731479540693    5.36102344277082
H         1.39312212225280   11.58947872677644    6.91764702658142
H         0.37238538287968   12.20016272917709    5.59654386673632
C        -1.05841949208902   10.89224087753214    7.72318207437745
H        -1.47629307061772   11.89275280075813    7.55441965071162
H        -0.41860905467379   10.92336524600987    8.61004042557602
C        -2.14921606478099    9.82389737263127    7.81867585548941
H        -2.03940685277570    9.19526406543462    8.70897243103082
H        -3.14748470436850   10.27084858587170    7.82358784398430
C        -3.15767671858007    8.36076048585235    6.12318871776838
H        -3.72118185432060    9.01881598766243    5.45394579004829
H        -3.78297436198578    8.10877017795464    6.97869068259944
H        -2.90886861768676    7.43755502831270    5.60562302696075
C        -1.01657335806799    8.05806081419058    3.92879404917386
H        -2.09019423953280    8.09771367448343    3.71961174481492
H        -0.77796610107016    7.13960589992527    4.47803064672534

