46
CSD_code = GIRMAY | q = 1 | S = 0 | Stoichiometry = C19H24NOPt(1+) | MND = 6
C         4.26604448962806    2.06145744986291    2.71453324995109
H         4.17792188195203    1.36571978161633    3.54739983757081
C         4.24213309683362    1.53246507634232    1.44435790027031
H         4.10025863692778    0.45635116720870    1.34856036958278
C         4.03235389491525    2.29577534774220    0.16435805704163
H         2.96009411424691    2.45439552001553    0.01866493567003
H         4.37466482827677    1.66931564926118   -0.66315449736053
C         4.77355894251896    3.64531869842959    0.11194429590993
H         4.92662096875123    3.90907910004079   -0.93484414340980
H         4.17291292174144    4.43747938589194    0.55643935660742
C         6.12165153042397    3.59685087031736    0.79748268451050
H         6.97272706178982    3.66219429705768    0.12245439756874
C         6.34090117576148    3.94425723762202    2.12179182697531
H         7.33871431376276    4.28972258040329    2.38992522051497
C         5.28833863007365    4.33595550135382    3.12797715282535
H         5.06011036752968    5.39774785529995    2.99753208694898
H         5.72149185697241    4.22688333831069    4.12596489261256
C         3.99272350630784    3.50653635081519    3.05012817570910
H         3.49957730105683    3.55282498313107    4.02149553281978
H         3.30288160409758    3.92637637457214    2.31981035945646
C         7.14390743522559   -0.91921137626202    2.98591902471127
C         8.49156782269043   -0.67367015151927    2.80411399375915
H         9.17139058836422   -1.46016621064479    3.08543741897534
C         9.05063730702984    0.49093920572129    2.26772537020475
C        10.54248589882063    0.50190141326230    2.09472259361945
H        10.80131312374590    0.70298714962369    1.05625719268814
H        10.97259386269035   -0.45001392729697    2.38735633582519
H        10.98845867572385    1.28942048390197    2.69983931558652
C         6.72024249802079   -2.24187402202516    3.56346998312822
H         7.06517752931226   -2.31746721054489    4.59304845960716
H         7.16227145204150   -3.05862284412182    2.99845805303596
H         5.63718090423005   -2.32828563126574    3.54401095808394
C         9.10025450137714    2.64236119629758    1.33350704419961
C         9.24819567668445    2.72764876673135   -0.04874081229470
H         8.80489134520853    1.96621617088828   -0.67596623514175
C         9.96723707498634    3.77215282498881   -0.60300777906447
H        10.08260176999912    3.83173635163704   -1.67399789777549
C        10.54284413512484    4.73199954007776    0.21341093174693
H        11.10531540128833    5.54271647154063   -0.22126168896029
C        10.40376632682680    4.64491226871879    1.58908026622134
H        10.85864828635625    5.38607864518253    2.22744069063826
C         9.68837715135803    3.60311309425012    2.15253982727696
H         9.58658854923266    3.52202087382046    3.22589645769189
N         8.36589744398286    1.56157668990221    1.89921863606585
O         6.19502304486125   -0.11356159611370    2.70133793262061
Pt        6.35965107124997    1.76358525795364    2.01116223577724

