57
CSD_code = GIRMEA | q = 0 | S = 0 | Stoichiometry = C16H30N6O4Zn | MND = 4
Zn        4.66806913240297    3.96839840032776    3.86827515619130
O         6.30524200423831    3.01130788944507    4.72781970017460
O         5.40341549612160    2.20650050380786    2.90894943711272
O         5.85243858993675    5.57268755925530    3.27403005864817
O         4.38442263381203    5.83802157048455    4.86919323275957
N         3.26054513047402    2.83842903163093    4.87482660512980
N         4.36378237760579    2.15864870111505    6.77707639609980
N         3.49678398243934    0.52504593493634    5.54756064674824
N         3.11009437439357    4.42073594607477    2.58476413203552
N         2.43622132583158    6.63740158442524    1.87867374399254
N         4.13092029955337    5.59654682678775    0.89061392487668
C         3.69254753235080    1.89006023692247    5.63813701498664
C         4.73147260931464    3.45689398531359    7.26081893360535
H         5.80424313045299    3.62192389984259    7.14046605743380
H         4.46512887948430    3.53532005773785    8.31859174364633
H         4.20136518096365    4.21068499450198    6.68654588491447
C         4.90297524163264    0.97513600494189    7.39450841981995
H         4.57092157996202    0.90842838979111    8.43748571647934
H         6.00015820640623    0.99630327282884    7.38432493495880
C         4.33236707014210   -0.15286389169700    6.52922533892561
H         5.13044476873796   -0.71667911631705    6.03266006855162
H         3.72230644341395   -0.85389739105208    7.10884095260917
C         3.31915602879508   -0.14843326740528    4.27719617988550
H         2.29381329567953   -0.03257323328022    3.92747630168306
H         3.50826855344409   -1.21057943680931    4.42396533759242
H         4.00520342229955    0.23760348961015    3.51760831676144
C         2.20108337885181    2.67450869936295    3.90885755338230
H         1.30094768163920    2.28240386321466    4.39738709144507
H         2.48369835433174    2.02814979633872    3.07373263788699
C         1.93270315684478    4.06676186971534    3.34015110909980
H         1.05409032443986    4.04737180279557    2.68408836511746
H         1.75241211857287    4.73661496903784    4.18508463782036
C         3.21657772440851    5.49613692775008    1.87708461812496
C         1.75765959533014    7.10913144765588    3.06868982322843
H         0.84379740412308    6.53962907588566    3.23359484390095
H         1.48331549786270    8.15148070977338    2.91423280708601
H         2.39588001960914    7.03232344501908    3.95390401962065
C         3.06795785236422    7.65728065772484    1.05264333329067
H         3.46155157080658    8.46822826559455    1.67681443944747
H         2.33100957033853    8.07878294833830    0.36114497103313
C         4.19554387407062    6.91894295987954    0.32538054202484
H         4.03247423293865    6.87486909192066   -0.75850483981223
H         5.17808418211420    7.37240862156712    0.50623871578115
C         5.09776413982837    4.60452385652173    0.52265146717878
H         4.85414025174284    3.67192903636393    1.02253596692543
H         6.09893153015044    4.91133739982934    0.83244555331087
H         5.07635768449746    4.46542576963296   -0.56186766395428
C         6.26925299990300    2.17092867413130    3.80666922006903
C         7.30673496000632    1.05917584608892    3.78755325454523
H         6.88662320733710    0.16032971629662    3.34392633083796
H         7.66509386467993    0.86387339382640    4.79448188574256
H         8.14395751868703    1.38947658675546    3.17632241325383
C         5.29190456582461    6.27947520145193    4.13585761148603
C         5.72098069437516    7.73099702425238    4.28438808958714
H         4.89019614427164    8.33418425922522    4.64030660682729
H         6.09709041084037    8.10865260423765    3.33775354003211
H         6.52187819932765    7.77291353658344    5.01911682006051

