85
CSD_code = GIRNIE | q = 0 | S = 0 | Stoichiometry = C40H40O2P2Ru | MND = 6
Ru        3.17318548034971   -2.45250516880170   -0.08233213700067
P         1.33808705476379   -2.57852429180742    1.26351586439078
P         5.05873368064628   -2.49369115821488   -1.36546650371823
C         1.98496347968999   -2.93379608581971   -1.69177293967071
C         1.84883655345617   -4.33418214372529   -1.87685144946054
C         0.93376852582999   -4.87229710904595   -2.79196806024041
H         0.78548019782642   -5.94217556492441   -2.84338631104313
C         0.19422603403511   -4.03211581692133   -3.58721183308931
H        -0.52029551865501   -4.43613632662272   -4.29120372147438
C         0.35240992071623   -2.64483371894552   -3.48747822841810
C         1.22284678382933   -2.12745754395019   -2.54270225813639
H         1.30442450277851   -1.04993255438221   -2.45458188049911
C        -0.44394112869676   -1.74628480360739   -4.38398098686561
H        -0.25999053228968   -0.70017452374658   -4.15134163521387
H        -1.50973741837857   -1.94736351329091   -4.27671469930119
H        -0.17839019856096   -1.92298717385202   -5.42649189176193
C         2.69937621133470   -5.11940504276932   -1.01110094666319
O         3.28863680817184   -4.55085710964943   -0.07221146344851
C         2.96832628655711   -6.55499642779269   -1.21700626712653
C         3.23376159322973   -7.35177118036291   -0.10423000172189
H         3.17417300960137   -6.90680727710672    0.87775232243265
C         3.56005667832294   -8.68228200097603   -0.25800960131244
H         3.75577068312634   -9.29053843121786    0.61365177331347
C         3.65437497554825   -9.25118694872666   -1.52412767451733
C         3.41753265357643   -8.44648884638029   -2.63175648065295
H         3.50919142577549   -8.86681285247939   -3.62342400012299
C         3.08103965443373   -7.11447571872762   -2.48699674634147
H         2.94609902748929   -6.49755088211213   -3.36256352759952
C         3.99998767422395  -10.69922910420202   -1.68523627314788
H         4.42565998005269  -10.89185117076063   -2.66713118789785
H         3.10234177600881  -11.30976379585675   -1.58025857761022
H         4.70866013199477  -11.01489951143343   -0.92265087368535
C         3.06321836284431   -0.63001729366269   -0.20732406091308
O         2.97838657844826    0.51979315493710   -0.31367910421152
C         4.32149486087772   -2.51022240913501    1.59776598441147
C         4.95446117957255   -2.87282812853117    2.56776235762348
C         5.69168045497044   -3.26274042019943    3.71261474388465
C         6.28223461832362   -2.31323121378497    4.54970758580164
H         6.17710997398637   -1.26353661781406    4.31180274868174
C         6.98989628523578   -2.71316333875383    5.66575474667410
H         7.44365166356776   -1.97106532055816    6.30845783677579
C         7.12137897931323   -4.05985640919548    5.96691662043829
H         7.67542678651663   -4.36852960211890    6.84196986780610
C         6.53948518672755   -5.00907264181506    5.14130836501813
H         6.64113932905196   -6.06065889004718    5.37418912688235
C         5.83031301829773   -4.61850631900769    4.02318669971687
H         5.37417426474750   -5.35581072256708    3.37518975509061
C         1.38060718517991   -1.69864888060676    2.86802886466881
H         1.37096004472655   -0.62885127659250    2.65498457608228
H         2.30876324872433   -1.93466871457582    3.38543782956004
H         0.52035962088919   -1.96653900756580    3.48222082076887
C        -0.28561046628060   -1.99761648170078    0.63775312613672
H        -0.50091218324170   -2.43686178971740   -0.33477870774185
H        -0.21602775007065   -0.91615325152808    0.51474118503983
H        -1.07880321196849   -2.23914127921357    1.34589858101921
C         1.01504885652814   -4.29963207525786    1.74777716483029
C         0.11840717959102   -5.09927989483628    1.04672858643591
H        -0.46838351218465   -4.68041384813178    0.24106071348310
C        -0.02069260369999   -6.43736661033872    1.37164212631429
H        -0.71875801767122   -7.05301745399992    0.82253624943785
C         0.73607122100098   -6.98886934564745    2.39137400569049
H         0.62504593064091   -8.03385349202324    2.64181982463499
C         1.64912800117587   -6.20192940415907    3.07651360736700
H         2.25417589600208   -6.63385508952827    3.86105934947016
C         1.79759572002563   -4.86678358902963    2.75071469115301
H         2.53599084034657   -4.26052985277748    3.25617910992587
C         4.96312597674569   -1.75790945380062   -3.04102053742139
H         4.15297926266309   -2.21842557350242   -3.60539870700877
H         5.90911068715873   -1.86494000475917   -3.57239221883580
H         4.73161213315369   -0.69959050734709   -2.91218964980428
C         6.54267114522851   -1.63598224129759   -0.72087474757119
H         6.77780577356249   -2.02726708029745    0.26755582397527
H         6.29997260482672   -0.57691347363758   -0.62494800917985
H         7.39081246236413   -1.76978885129694   -1.39306836207521
C         5.69469696442926   -4.17503689682142   -1.64390993044729
C         5.70367709373968   -4.80690777177641   -2.88049717860482
H         5.38156795043848   -4.27952541980813   -3.76682670016982
C         6.12143356111518   -6.12370751000838   -2.98180458383046
H         6.13105511376707   -6.60951135130589   -3.94709339576745
C         6.51371844070108   -6.82073353287759   -1.85310035209195
H         6.82591654530963   -7.85139570944846   -1.93647661453819
C         6.49045496670098   -6.19923628545347   -0.61410093595918
H         6.78378664668677   -6.74619622200963    0.26998395249666
C         6.08245215521810   -4.88435953163969   -0.50785380030183
H         6.02923698720919   -4.39804127520454    0.45826916679189

