69
CSD_code = GIRNUQ | q = 0 | S = 0 | Stoichiometry = C23H38FeN2O3Si2 | MND = 7
Fe       -2.18225794850658    2.44046807985464    9.23816091416333
Si       -2.06072457597840   -0.06850977284144   11.91885888458538
Si       -4.45251273610019    0.90843897415721    6.77944337658692
O         0.45393703361746    2.73440157934917   10.43891115094225
O        -1.37762845503482    3.54635050641165    6.66759843795535
O        -3.28193039520710    4.92595709781839   10.33200291304391
N        -1.58462937100042   -0.48127908251045    8.16063383788484
N        -5.16354548405685    1.42642320861611   10.46339987854441
C        -0.58850071683015    2.59964100924842    9.97213030606095
C        -1.71270903234134    3.09667685577391    7.67097620568255
C        -2.91318204559949    3.91367088423703    9.92252290009440
C        -2.70353363511464    0.65639827245849   10.30104546767694
C        -2.31393737618669    0.48835459460549    8.86787240700202
C        -3.61175417096091    1.06226001967453    8.45944708044223
C        -3.99910359985579    1.13112430136780    9.85219793413080
C        -0.27925865028768   -0.73421556189192   11.79292172292205
C        -3.20263844173560   -1.52699157078460   12.40611515157494
C        -2.02129588684123    1.26476132087189   13.29560345577561
C        -3.13004990698192    0.49686849062400    5.47653537665050
C        -5.73002737014290   -0.51417114212467    6.88808724540128
C        -5.32094375978632    2.53299479438093    6.25378202238495
C        -0.13953510061651   -0.35093140632129    8.14487822814284
C         0.43561832018192   -1.24846601457502    7.05294250726362
C         0.03649568773129   -2.69847091743733    7.30856955344721
C        -1.48327561819119   -2.79527654428690    7.39244138044632
C        -2.01091819377927   -1.83876399262002    8.45817285866861
C        -5.17351605287252    1.73252335462779   11.87939897393160
C        -6.53985461418808    1.41511923325750   12.47985275385870
C        -7.62900046708568    2.19419132932710   11.75089033352536
C        -7.55743790445624    1.86782327568254   10.26327029556845
C        -6.16318142547682    2.17317366108544    9.72506542140036
H        -0.19914972965143   -1.60960681911865   11.15635541703185
H         0.07918696479455   -1.02047256573536   12.77798118577180
H         0.39625713533378    0.02442070039795   11.40989431231306
H        -4.24002835301479   -1.22447442705847   12.50946416970072
H        -2.89001754818515   -1.95444330951684   13.35402175546991
H        -3.16998716085596   -2.31918619990159   11.66408849481016
H        -2.77740778835427    1.10003702801261   14.05827380120320
H        -2.17118151402631    2.26077367113636   12.88658975097444
H        -1.05775119881563    1.26677898511892   13.79654008458542
H        -2.51923345360770    1.36782999750438    5.26152220075536
H        -3.57925275412745    0.16910891030388    4.54327713140975
H        -2.46699726562181   -0.28371831623325    5.83060176180056
H        -6.41225895097900   -0.39389717836600    7.72440080494465
H        -5.23752463134225   -1.47468827722157    7.00394445927360
H        -6.32684740912421   -0.56119040524459    5.98245868841409
H        -6.38604214668960    2.53117879404611    6.46548440257218
H        -5.20868105121137    2.68909088519179    5.18556463133251
H        -4.88300388549068    3.39248768643338    6.75374784507832
H         0.09629363213861    0.69695094542510    7.94112005841285
H         0.30969770498180   -0.62248458206872    9.11228979946841
H         1.52196348438220   -1.14841339451200    7.03426336814725
H         0.04478371115492   -0.92737395659702    6.08614129678259
H         0.47628358550660   -3.03627495861295    8.25053830362695
H         0.41298611283816   -3.34250496103671    6.51166691268502
H        -1.91721619529280   -2.52841328660696    6.42724901880448
H        -1.79034145265758   -3.81457849943656    7.63469990909887
H        -1.65365643800680   -2.16260658592454    9.45134991588218
H        -3.10381794020251   -1.85282169575716    8.47122833401903
H        -4.40415677998166    1.14272581718539   12.36958019659814
H        -4.93922675750389    2.79826164355694   12.02843838960153
H        -6.73268218618064    0.34463572587447   12.38311282931484
H        -6.53259655482841    1.66601203992308   13.54141016857420
H        -8.61157394016782    1.93765592664947   12.14983753516277
H        -7.47345882243709    3.26527417148789   11.89830184963692
H        -8.29324511196851    2.44916556579836    9.70615610190823
H        -7.77439798846735    0.80829015230841   10.11297641874683
H        -5.95630325109805    3.25125866522975    9.81284977208215
H        -6.09788217755296    1.89876726932785    8.67524994824609

