43
CSD_code = GIRQIJ | q = 0 | S = 0 | Stoichiometry = C16H21ClN2O2Pd | MND = 4
Pd        4.25138866002964   10.45692567124524    6.73587181561798
Cl        2.79349042321300    9.21040613841039    5.59420167654937
O         2.73745579327859   11.14963142852800    7.85154594978380
O        -0.66382585081800   11.76839442592309    9.79084532014375
N         5.55107293724574   11.62293292685598    7.65849236302558
N         5.88291761187120    9.78637219762099    5.64876057845129
C         2.84339184204922   11.92438681211698    8.86013181856095
C         4.05238006658741   12.56261472637718    9.30850621830950
C         4.01570469730152   13.41895916575074   10.42550189560492
H         4.94266512129952   13.88608807280884   10.73256219935764
C         2.86557252698701   13.68186860654528   11.13260421883234
C         1.69021306239417   13.06154126955017   10.70837680152604
H         0.76035881448025   13.23455640013372   11.23212724937532
C         1.65797515388511   12.21315354205591    9.61894654923204
C         0.39189615747663   11.59198964507844    9.22800491765255
H         0.47377291813451   10.92568676675207    8.35238882693316
C         5.30944844019144   12.39344840078385    8.66348278882012
H         6.13434647572963   12.98675866264089    9.07029134194222
C         6.85656007522734   11.59957962385600    7.03659349797194
H         6.89922356877919   12.38216002004070    6.26640188402130
H         7.65280023407369   11.80747688100796    7.76542943163764
C         7.07260732267202   10.22057873563359    6.40527907778243
H         7.22923779308369    9.49660855585017    7.21212880623987
H         7.97045846647513   10.24066811900118    5.77845000576639
C         5.74933041598807   10.44412253953478    4.33505984531141
H         5.77099714982100   11.53235506773706    4.47470728178693
H         4.76206354913682   10.16342929037324    3.94483764181223
C         6.81778768289281   10.01845559052936    3.32463898554994
H         6.60584082139823   10.50554521345494    2.37216062808337
H         7.80985824996607   10.34617179318977    3.64356911638447
C         6.80122695441414    8.50220044058598    3.15642883471526
H         7.59646759650637    8.18843231137063    2.47841564238754
H         5.84666428331683    8.19940071399983    2.72310610564015
C         6.96556415962545    7.83345972945607    4.51784251871548
H         7.95637548699030    8.04781664969392    4.92456141346112
H         6.87800563062980    6.75150181785775    4.41663044218326
C         5.86897754575994    8.32436263575621    5.46305785064655
H         4.88980936339149    8.06335584294880    5.04666893180844
H         5.95811918376284    7.84837525504456    6.44622425386221
C         2.85170260293276   14.60083602967778   12.31620887781301
H         3.84922868327160   14.97553545751337   12.53165274537572
H         2.47654104456156   14.07986047843140   13.19573871446940
H         2.19452728398655   15.44879634827631   12.12766493685644

