96
CSD_code = GIRROR | q = 0 | S = 0 | Stoichiometry = C36H52N3O2P2Rh | MND = 4
Rh        7.22611426009196    7.85699764617255   17.82234520922193
P         7.46623396799095   10.86664789114904   17.69632365377063
P         9.63130410688531    6.77848568244379   20.44146938347523
O         6.40899089772465    5.44588374607441   19.37014913889564
N         8.37184204482999    8.83316223550522   19.15392159010798
N         9.39557858815717    5.75826862579336   19.26036620659960
N         7.44641102269017    9.61263864770480   16.68306456188649
O         5.30396860578711    6.63684455180067   15.88887299288306
C         8.33188486772931   10.19333023983126   19.09372106934467
C         9.68566091201197    9.67323910693627   20.77811300188825
H        10.36272792333536    9.72686749114003   21.60963343674115
C         9.13012209304693   10.74693684786511   20.09213922177314
H         9.28737272022629   11.79056441577174   20.29395832795188
C         9.19863838881443    8.51269065427355   20.17543252152116
C         7.05751369710441    9.68334367128619   15.34658747326407
C         9.57391445824573    5.92237759802891   17.90538858935239
C         8.50133100098423    6.23250992300009   21.81068193581922
H         7.53073863901214    6.63535333621680   21.48537526213719
C         6.01017526840696   12.30475135658751   19.59022511216222
H         6.45808907527863   11.67840764403203   20.35972900555364
H         5.05153525371454   12.66885381899955   19.95657962541546
H         6.65941077552750   13.16226040466944   19.42234554975452
C         5.81230833079004   11.50573208424983   18.30839276234201
H         5.36473653729242   12.14950089736928   17.54326916938800
C         6.07181079596660    7.11084178948681   16.59519815668338
C        10.14072631759045    7.04744986128842   17.28627184476479
H        10.50197070779536    7.86076423206889   17.90395370020827
C         4.92258579343090   10.28685291115456   18.52574718781522
H         4.68749463324658    9.80882932600992   17.57323294982486
H         3.98859597416182   10.57264567551073   19.00695302681690
H         5.43103984333054    9.55224739129565   19.16423901945463
C         8.51031180173306   12.31599929578761   17.16672315166591
H         8.83513371907871   12.75742678287402   18.11774141720992
C        11.80977725348797    5.39747136452925   21.42328537374820
H        11.31703188020212    5.01919279805223   22.31552662694697
H        12.88611284571583    5.34954159102274   21.58428873800196
H        11.55348895270493    4.74922739919168   20.58579374323693
C         9.72043660324928   11.71469474094373   16.45983664834591
H        10.16168093460957   10.92772451875816   17.07198329653441
H        10.47537698554128   12.47604977991208   16.27187197119552
H         9.42215858232134   11.27701197947337   15.50801393464132
C         7.42906133984918    8.64463324002519   14.48813135300309
H         8.00718700278509    7.82138462949518   14.89174972760038
C        11.38023122209959    6.82497947755448   21.11089914316066
H        11.39600205480457    7.43612003161671   22.01781802830351
C         7.84572123035564   13.40202439036344   16.33146855428445
H         7.62586361987846   13.04450898291321   15.32876772120493
H         8.52343909708413   14.25056259228872   16.24299566257124
H         6.92522698971859   13.75611808585162   16.79208896587519
C         6.87315598739052    6.36914697923748   18.87501592106393
C         6.31030831224699   10.73163320641136   14.81906902192081
H         5.97773852939408   11.52099097967728   15.48106481050739
C        12.30227776207470    7.44375314708790   20.06704089879692
H        12.30648586915731    6.83293328881244   19.16558764283533
H        13.32129174685994    7.50028939204456   20.44890443346807
H        11.97778666721359    8.45060641216794   19.80791104261071
C         9.17082847970836    4.86911602473313   17.06999671106562
H         8.71771451291996    3.99778056645717   17.51992201414168
C         8.38453002961936    4.71800467824716   21.89380332252979
H         8.32753636915273    4.30571763765875   20.88943349751408
H         7.48648174620502    4.43838379736308   22.44176348515144
H         9.24230064933105    4.28162363423873   22.39864101378551
C         8.85816020217395    6.88048109760672   23.14238036048409
H         9.77349033179144    6.45910179538821   23.55281955942771
H         8.05888402359440    6.71451893541603   23.86344502633449
H         8.98986668672699    7.95483618169277   23.01980628851033
C        10.35769756167912    7.08198442136183   15.91883752461932
H        10.83425402444677    7.95520981518025   15.49823163427612
C         9.37432230671594    4.92669576616769   15.70884990382244
H         9.05543425918033    4.09449173491006   15.09545885487126
C         7.06715435517244    8.66810306478898   13.15862701960931
H         7.36199977352543    7.84542006449768   12.52459187591141
C         9.98743861235697    6.02184155958508   15.10313480671239
C         5.96393992028972   10.75302360498196   13.48125985653444
H         5.38218660355868   11.58192743371631   13.10067576990192
C        11.41601880900092    4.99310860030532   13.35570345748206
H        12.32228895072180    5.34455880165953   13.84514339202805
H        11.60971717302062    4.90720626113951   12.28806173237570
H        11.17947294852100    4.00638697040723   13.74595562372648
C         6.33717401620819    9.72649349723985   12.62570806554961
C        10.26515221665471    5.97268381082441   13.61695338425989
H         9.36676940825719    5.57961325149531   13.12357621996300
C         5.05418760514702    8.57307453354903   10.81382336665812
H         5.58365442383254    7.63351578053630   10.95008841978436
H         4.73195098820736    8.63917199287952    9.77667361107403
H         4.17275692290919    8.56409465089741   11.45152652716277
C        10.59863476959228    7.32692303249275   12.99449063303840
H         9.83612429831138    8.06630762891899   13.22595587093425
H        10.66309223746835    7.22735215252628   11.91215172535804
H        11.55965673728315    7.68927143766875   13.35324337987315
C         5.95439083646885    9.75886994628480   11.16694197317957
H         5.39148981583211   10.68139596584446   10.98231628458691
C         7.20073184989379    9.77567877802909   10.27875257637849
H         7.83389769947205   10.62432830098716   10.52952898273920
H         6.91698727885355    9.85274236226662    9.23125882968854
H         7.78041607516300    8.86575564012837   10.41150890334470

