69
CSD_code = GIRVAH | q = 0 | S = 0 | Stoichiometry = C33H28AgClN2P2S2 | MND = 4
Ag        6.72816667174250    3.67707232496754    3.90386065312919
Cl        8.34260027612439    1.94613682996801    3.58639159694430
P         4.55257723345020    3.13798932427410    2.44170539181063
P         4.92071510605102    4.99111474775735    4.92953489035619
S         7.30785739193489    5.34200063553984    1.64243344346357
S         7.73800137677602    4.44466418854553   -1.20124318431497
N         7.96238698505311    2.88585863447081    0.77705757354174
N         8.19246440348414    2.10847804636854   -0.27762474459199
C         7.68055365908346    4.17405055533650    0.54102778846919
C         8.11507637874776    2.72663383345287   -1.38847748794733
C         8.30291425237909    2.11223365614518   -2.71811580647211
C         4.34404180355219    2.59379668700421    0.71910069864368
C         4.60970053713675    3.50129533004309   -0.30635751836042
C         4.61440424246572    3.08204448295680   -1.62274177688940
C         4.38116232573561    1.75045265533200   -1.92869365367853
C         4.14066099697801    0.84047049763529   -0.91255393499871
C         4.12680161695048    1.25496805690165    0.40655912652426
C         3.50941253137853    1.95596511971345    3.35750911803243
C         2.14322985845938    2.12129832282692    3.54849139299216
C         1.43466227462150    1.18360615820796    4.27776213675413
C         2.07881305346533    0.07853030444132    4.80890391127851
C         3.44073321845983   -0.09044679752865    4.61785630377258
C         4.15692608991098    0.84993773469905    3.90175745117409
C         3.55511282637280    4.65653919854969    2.53442872143991
C         3.77656782439294    5.52126587826460    3.61543001992569
C         3.07510281063581    6.72039259502998    3.69169521772223
C         2.15122283674268    7.05502697606917    2.71858090004031
C         1.90654410170464    6.18568313952277    1.66776544991544
C         2.60580344813303    4.99628181030741    1.57513212101411
C         3.77999854904357    4.01011872135945    5.95835079607703
C         4.26334565521219    2.84065936185806    6.53377488082415
C         3.43539719400316    2.05491841658135    7.31382389547258
C         2.11912282869494    2.43272232395927    7.51914439653872
C         1.63264446686885    3.59746322221813    6.94707045270730
C         2.45705178507345    4.38710758929467    6.16771059227204
C         5.16351494582719    6.52375072211091    5.87284432238858
C         4.73773764729945    6.70782625227405    7.18284538909907
C         5.02920544430318    7.89285976880692    7.83677170495599
C         5.74797733491724    8.88748485356980    7.19504831986252
C         6.19092228178255    8.69787048643671    5.89408825752729
C         5.90943933418050    7.51677238548592    5.23701821007447
H         2.07658912716418    5.29394428564685    5.71796228026177
H         1.61667264806837    7.99117673313077    2.78484477137252
H         1.63726032913203    2.98293296966155    3.13559778497596
H         4.39107451598970    1.42167961846856   -2.95764059744827
H         0.37368309201604    1.31647830634813    4.43231719845637
H         4.81126645588867    4.53688693722480   -0.06355172608786
H         8.09627841325577    2.48259634853211    1.74538414719860
H         1.51869349337573   -0.64894097093531    5.37772397456884
H         4.81061679484273    3.79518488812957   -2.41087204094773
H         4.69459701426536    8.03837165896730    8.85362604479977
H         3.94458015759828    0.54214327277420    1.19843498851702
H         4.18075887038764    5.92975502652821    7.68611418260805
H         6.25947424392498    7.34715618781613    4.22551764029791
H         6.76225735851357    9.46851027663693    5.39833274996342
H         5.97210604954204    9.80892209391930    7.71172791973420
H         3.25839826003013    7.39846558902358    4.51386036969841
H         2.41255600097206    4.32334841424478    0.75147597986162
H         1.17174394444241    6.43594189847720    0.91670643659006
H         0.60533247719032    3.89035005891772    7.10803924563871
H         1.46925910757163    1.81793675539881    8.12392829574900
H         3.81465337226127    1.14657815029782    7.75730008084572
H         5.29507998072076    2.55213906105194    6.35499175036992
H         3.94441768675935   -0.94999396112248    5.03483422652733
H         5.22719648144016    0.74415452441803    3.76097355498031
H         8.58537594147336    1.07101143749758   -2.59199973194836
H         9.07781560237669    2.63887330389021   -3.27249308930183
H         7.37717026434443    2.17023472464123   -3.28904327984060
H         3.96731871730543   -0.19913262057004   -1.14876017486372

