60
CSD_code = GIRXEM | q = 0 | S = 0 | Stoichiometry = C16H39ClCoNP2 | MND = 6
Co       10.85940170922855   10.80508311852622    0.87157845032056
P        12.75256867481713   10.76667612355194    1.96921895006917
Cl       10.47183787272847    8.69725012392742    1.62808964368182
P         9.13560931005757   10.56660040608464   -0.45609517784731
N        11.92393308138683    9.82491613775349   -0.63544543328072
H        11.73631775416222    8.88037197051957   -0.27806517118253
C        11.34479167637956    9.91235386130942   -1.97024806539152
H        11.83714690908129    9.20644914553300   -2.65998617828522
H        11.51102239199960   10.92551995604651   -2.34830770412511
C         9.85312303829254    9.60970692034523   -1.88327390210969
H         9.71105949507200    8.54823117211733   -1.65771608970909
H         9.34663799970457    9.84050253587542   -2.82245501451321
C        13.87189538655608    9.83078541094250    0.81241588286773
H        14.91277147184175   10.14504072497220    0.91079724658316
H        13.79588378466448    8.77321508757921    1.08367192919773
C         8.33762704292837   12.02052510336256   -1.31568990787698
H         7.54157998600831   11.63517598949110   -1.96299661716743
C         7.71922427738035    9.43818321067544    0.00213417802984
H         8.22399404806420    8.47108331313046    0.12679202924146
C        13.36783843423427   10.02376847638636   -0.61335463359554
H        13.57755002234235   11.03943015030169   -0.96191631366303
H        13.87279010018342    9.31873898790420   -1.29482208402654
C        12.95086668485930    9.72937239260216    3.51006721404987
H        12.72003177915755    8.72100708203663    3.14196295954788
C        11.90211348641191   10.07240102849395    4.56266275800253
H        11.86311083132034    9.28782174244804    5.31679378639475
H        10.92233231129746   10.15083383601585    4.09674842228399
H        12.12413763575501   11.01236005260241    5.06194384765314
C        13.73465618368501   12.32052233775234    2.30177129651391
H        14.65869628023900   12.03289074513611    2.81611030495167
C         6.64291122264392    9.29938543371348   -1.06879251862765
H         5.98696815346989    8.46882591210085   -0.81127425983047
H         7.07236181974792    9.09834001120296   -2.04857180778097
H         6.03139005220271   10.19727575829665   -1.12870135750784
C        12.90547677041619   13.24364054126473    3.18757694340772
H        13.40485796152687   14.20335701737846    3.31421911478711
H        12.74586588789815   12.81035067274852    4.17102398649749
H        11.93374654959169   13.41021174566585    2.72575974884762
C        14.35595243496300    9.72999136205962    4.10206081665705
H        14.57164636832874   10.67358023020202    4.59897650082829
H        15.11406881680358    9.54947675276004    3.34212876666024
H        14.43043935791198    8.93902235254821    4.84719542624347
C         7.11675682504116    9.80575673490186    1.35404576200446
H         6.49824458052297   10.69768245830345    1.29092827647082
H         7.91031669702630    9.98526587905278    2.07601626151626
H         6.49758018075048    8.98776784860081    1.71921011759686
C        14.09540710975011   13.03482448340907    1.00419496193858
H        13.19615561212114   13.21286737993617    0.41779508862602
H        14.80239732587341   12.46022453803541    0.40940952898951
H        14.55219919684996   13.99805967510014    1.22760932604151
C         9.34684790129596   12.77593964768074   -2.17286361697631
H         8.89322699872065   13.68692843567332   -2.56105906082198
H         9.68149720954847   12.18227577920971   -3.02093522192050
H        10.20839424673119   13.05524343262852   -1.56968601080346
C         7.75281582347238   12.95345937833925   -0.26117716197032
H         8.52595459088874   13.21342110296724    0.45998080192726
H         6.93223309944691   12.48243774936808    0.27285423768270
H         7.37983760997700   13.86689473740797   -0.72269427324492
H        10.12049956057905   11.44289856288478    1.92177152537522
H        11.14810037606155   12.09677724313255    0.33251149075103

