66
CSD_code = GIRXEN | q = 0 | S = 0 | Stoichiometry = C28H26Cl2F7IrN2 | MND = 8
Ir      -11.59683980251392   -1.24016267931561   -6.94148464688579
Cl      -11.70805327559923   -0.10426567270520   -4.85258835327267
Cl      -10.41366546351091    0.60355176043574   -7.78309581362903
N       -14.53594487628384   -0.49675560974561   -6.88599270273744
N       -13.70355357085375   -0.02735846922386   -8.80920039163060
C       -13.36718114198888   -0.45314063211317   -7.57593169587587
C       -15.57490937611519   -0.09206394561312   -7.68029150446866
H       -16.58275631367207   -0.04093906690266   -7.32415143818171
C       -15.04914795777783    0.20243295552661   -8.88808567488043
H       -15.51117686810414    0.56093728400250   -9.78424138875718
C       -10.22587366999860   -2.88413751566192   -6.15235395779768
C       -12.12062522602417   -3.37405614860176   -7.40320158942942
C       -11.60974048693722   -3.30779498837209   -6.07979543747231
C        -9.89726888126350   -2.68571016982996   -7.50263868792496
C       -14.69871910857721   -0.84614004566671   -5.50423528055706
H       -15.70646675049115   -1.25136898195185   -5.35857955278969
H       -13.96894339519316   -1.61850408113067   -5.24412526386525
C        -8.56575423102868   -2.35250928910826   -8.08667926542107
H        -8.58465009453102   -1.36241392197970   -8.54373948865011
H        -7.79140470342564   -2.35922513430869   -7.32429630806981
H        -8.30772205604027   -3.07854254885943   -8.85773912096242
C        -9.31844725916702   -2.83780138040397   -4.96807714694467
H        -8.36759547990430   -2.37454383300892   -5.21811998763793
H        -9.77426763028527   -2.26309900359126   -4.16282912081882
H        -9.13199838194351   -3.84817507142250   -4.59941102851575
C       -11.10298827066229   -2.99924976534818   -9.78224282588410
H       -12.11563165897360   -2.93350049894836  -10.17273040035001
H       -10.50447486366630   -2.20496330136442  -10.22222185057144
H       -10.68009258864409   -3.95617258095491  -10.09505198600615
C       -11.09035573717035   -2.90458386812564   -8.29019247134349
F       -14.16050755368917    0.58201724744974   -0.92512491594124
F       -14.58388608658391   -1.30352108130383   -2.81770913786946
C       -14.42853953770108   -0.02327001484380   -3.17806075514884
C       -14.20661495081051    0.93734925808521   -2.20662558181697
F       -14.04375754500163    3.87839249189472   -4.30740873589667
C       -13.34041416416266    4.31944339533696  -11.15158275108440
H       -13.47079880045467    5.34815154857060  -11.45306138255367
F       -14.46812026105514    2.03484937650058   -6.14734413086083
C       -13.00432430375201    1.67473705311860  -10.37964742164793
C       -14.14399436427974    2.61418883906935   -3.90941446290222
C       -14.48784366256881    0.29399622996655   -4.53481421394385
C       -14.37068114247542    1.63568826755822   -4.87528152835910
C       -12.97488394231305    4.01722898316984   -9.84961072365826
H       -12.81808504144409    4.80937774466961   -9.13364347411459
C       -13.53452473527380    3.30079765276914  -12.06783762610671
H       -13.81601131209064    3.53181764569677  -13.08479463206664
C       -13.37177132103676    1.98098550400528  -11.68143405357083
H       -13.52443103603793    1.18733844746049  -12.40019077787225
C       -12.83106657266046    0.24605959592343   -9.93092651362171
H       -11.80049795594388    0.09100575910390   -9.60041693354976
H       -13.07055288272690   -0.44354247062770  -10.74619503532151
F       -12.82251658382953    2.93851580735177   -0.65539777698805
F       -14.91791883673082    3.42077638833260   -0.69743438697796
C       -12.25474158424266   -3.79658144962115   -4.82458822842476
H       -12.16910972923008   -3.05301603878155   -4.03276794650763
H       -13.30631098484731   -4.03014859213750   -4.97550727245536
H       -11.74992690009076   -4.70142891493874   -4.48278318113523
F       -13.53543722655863    4.51322995215417   -1.91848660344601
C       -14.04984790675140    2.27796107839580   -2.56362347310507
C       -13.43268783552275   -3.95420031173969   -7.82953401300554
H       -14.16920645091722   -3.90396541808300   -7.03084932042480
H       -13.83188434519180   -3.43471094279743   -8.69842523687757
H       -13.29480318281924   -5.00288595281140   -8.09822275539063
C       -13.82145716824153    3.29433953167029   -1.46898159665611
C       -12.80555635821670    2.70079900450409   -9.46381717548370
H       -12.50613861429313    2.45878058938527   -8.45603186377911

