56
CSD_code = GIRYIP | q = 0 | S = 0 | Stoichiometry = C28H20F5FeOP | MND = 8
Fe       -0.84315733956579    8.52880461087145    3.51957096248403
P         1.23878505990433    7.99224981310105    3.24915948020900
O        -0.17327337551664   11.01675517594545    4.80140897716390
F        -0.81049285064975    5.28544550776470    5.21401548938905
F        -2.72950439788442    6.20313209871616    5.55752335627250
F        -0.01596891415159    5.95174401306192    7.70832576748946
F        -1.95273102948538    6.82970302440559    8.09114146189546
F         0.09165159400541    9.08811840100116    7.10236156657106
C        -0.84000159038762    7.74004973022123    5.26129717537406
C        -1.39895234048088    6.39724176863974    5.72219274583811
C        -0.96093637883671    6.76837815715158    7.16935361959938
C        -0.49533852273376    8.03310397755032    6.52873254085114
C        -1.48281685207058    7.71186274600654    1.58519680375575
C        -2.30773808591610    7.17852534047888    2.59526902211767
C        -2.97669291544239    8.25627917865179    3.22598158517810
C        -2.57075722351063    9.45315340765952    2.59312069036737
C        -1.62980200950953    9.12343151933573    1.59044293123799
C        -0.39115455617780   10.01308636157430    4.29714226776853
C         1.96337032922693    8.83156552266664    1.79303698655441
C         1.62610609240256   10.17083250467457    1.60377847240261
C         2.12660281656336   10.87596232251224    0.52603231255689
C         2.95509148126189   10.24493074011585   -0.38888243841191
C         3.27390539507278    8.90855451366356   -0.22096677384725
C         2.78198232887245    8.20121264845656    0.86327969450037
C         2.33622301526454    8.48554227737665    4.61709889661687
C         2.95878364043788    9.72765335522583    4.66210306916640
C         3.67921219111355   10.09978438706552    5.78318609395738
C         3.77533373809774    9.24337240402122    6.86672930689847
C         3.15966463221357    8.00269922387592    6.82588055402332
C         2.44166421500856    7.62380173640748    5.70820479362200
C         1.75531498837376    6.25826465772384    3.01630559306278
C         3.09958571441272    5.90532235842617    3.13729545514121
C         3.48924794910773    4.59301158485751    2.95006979039463
C         2.54661162775758    3.62291326092103    2.64447885525611
C         1.21175570979211    3.96853748259995    2.52584947711007
C         0.81732220127799    5.28243460428860    2.70970486679421
H        -0.91048775269394    7.15068978664521    0.86341179459311
H        -2.50182100180511    6.13608761886296    2.78206101300349
H        -3.74268352106346    8.16382159936613    3.97729669098871
H        -2.96819406470247   10.43507136307742    2.78873185071145
H        -1.22194005751978    9.79710284477428    0.85532552519222
H         0.95561181095937   10.64577619120955    2.30723876608750
H         1.86603185371687   11.91580716791329    0.39362799979332
H         3.34300187212580   10.79209541875729   -1.23498639372436
H         3.90874636623409    8.41040275357957   -0.93892067227547
H         3.03415268341693    7.15732114619522    0.97900272315421
H         2.88397300658701   10.40106713932593    3.82024660898075
H         4.15988603422519   11.06642239456844    5.81329202135337
H         4.32764320295828    9.54313280923510    7.74453712675109
H         3.22755146054931    7.33271818473489    7.66963138512453
H         1.95862471873549    6.65626363140710    5.67546036467464
H         3.83200891691410    6.66174207872639    3.38585059832298
H         4.53076776149499    4.32375932363668    3.04731872449251
H         2.85478012109920    2.59734743087596    2.50598852155040
H         0.47495726298876    3.21333163021042    2.29745359965473
H        -0.22320701203934    5.55347907013434    2.63711030234644

