43
CSD_code = GISGOE | q = 0 | S = 0 | Stoichiometry = C8H24Cl2O4OsS4 | MND = 6
Os        2.66938410631704    2.30751336905097    3.25908064312304
Cl        1.44404239473715    2.83618583573468    1.37333859250113
Cl        0.84210331479718    1.71152858608010    4.54059653770669
S         2.64376487610203    0.12603187925579    2.58564453813172
S         4.57035800302261    2.69342143259425    2.05615071969657
S         3.98310164443875    1.99341282324221    5.09885825622914
S         2.29562410450795    4.48016259866293    3.85325917554936
O         3.65950450686588   -0.14456791530224    1.57231190071696
O         5.11989726436227    3.98506680287151    2.48857355324150
O         4.71111875106461    0.73047543129826    4.91921505087665
O         2.83648560759214    4.78576416794666    5.17457549704303
C         1.04871654933147   -0.34173881139597    1.85101236339783
C         2.72403917159691   -1.20927362730188    3.81402603325351
C         4.46682714425619    2.75682337379176    0.24189288716247
C         5.97316754307635    1.53987233443136    2.16367457844886
C         5.26991554050614    3.20700283447401    5.52471576867938
C         3.19873735112541    1.90917240404483    6.73712565226051
C         2.77984135475008    5.82800718820008    2.73645660494026
C         0.52251169232954    4.87270894782384    3.92164121470365
H         0.87862079154873    0.30190172471091    0.99446119298921
H         1.09647306362186   -1.38017380029183    1.54730142979783
H         0.28341615567936   -0.16925767559392    2.59882952797504
H         2.71170931834317   -2.15789086844119    3.29191302359185
H         1.86502523588572   -1.09478383315852    4.46394135436269
H         3.64573924964075   -1.08649622682458    4.37124250845986
H         4.18263036964620    1.76369729265522   -0.08502091502266
H         3.69867636704664    3.47192999874704   -0.03088347105924
H         5.43089547944821    3.05357062926815   -0.15280557066398
H         5.75698713760075    0.68465017837441    1.53767216373329
H         6.85563831238929    2.07750759569073    1.83729280533149
H         6.07582938336245    1.21758357972594    3.19441303102431
H         5.98304817843922    2.70521047188016    6.16815984596373
H         4.79470438977158    4.04711752410090    6.01301808129466
H         5.74443082797004    3.54163540610135    4.60835435034999
H         2.41559908458770    1.15999285909264    6.70171024084472
H         3.95123538718642    1.64934585387415    7.47166643721801
H         2.76962682382536    2.88636220599331    6.92373475968213
H         2.52757318003778    6.77083125917037    3.20557274663342
H         3.84885135617296    5.75061001296489    2.57426095386031
H         2.23979707824299    5.68117787668043    1.80898713589188
H         0.10731196606382    4.67311759278265    2.94057878818882
H         0.40637226542808    5.90982463548763    4.21118099294691
H         0.06736767728292    4.21556605150508    4.65506901894552

