78
CSD_code = GISHUL | q = 0 | S = 0 | Stoichiometry = C44H28IMnN4 | MND = 5
Mn       23.80260414476093    9.36124027802542   -2.06284686187342
N        25.58530736666062   10.28441507986362   -2.04738868376653
N        23.82589519647111    9.33822907070547   -0.05209410777336
N        22.25718321560264    8.06806535053385   -2.03317620287070
N        24.03490611247033    8.99457003197608   -4.02715821463274
C        26.32995825366247   10.65324302649298   -3.13715095654747
C        27.48372543104652   11.39553588874166   -2.72484274143184
C        27.42556370934313   11.49307643090719   -1.37650370979195
C        26.23414554100211   10.81386332776594   -0.96245186983371
C        25.83792898731939   10.69025528760262    0.36644337020807
C        24.71208682586085    9.98032670463419    0.77401330018705
C        24.30716244922646    9.84488553790649    2.14123934196625
C        23.16310435517245    9.12234952992405    2.14146961770874
C        22.85977206723732    8.82479722221549    0.77353522905452
C        21.74272862285596    8.09640891181809    0.37217115580341
C        21.48057177751517    7.74743751431756   -0.94964124146102
C        20.32999986964249    7.00130469303593   -1.36366816006241
C        20.41368522979571    6.86519244097943   -2.70717283935917
C        21.61364509292927    7.53121915306955   -3.11800390661222
C        22.02857461010794    7.62987669713889   -4.44325917120258
C        23.17489934244613    8.31034062868314   -4.84626423867323
C        23.61921049663566    8.38151744403182   -6.20634899812476
C        24.73714368009709    9.14370656324503   -6.21442304042806
C        24.99046972128240    9.52290468520519   -4.85669525239697
C        26.05949734117988   10.32213174453008   -4.46214996648065
C        26.96376769352264   10.85396290803382   -5.50498681548594
C        27.79964141451854   10.00624989629752   -6.22381380776427
C        28.64476168657126   10.51808914583357   -7.19208280368121
C        28.65817712028461   11.87759567125418   -7.45548480615971
C        27.82508763477949   12.72585417119780   -6.74468713207092
C        26.98400164873961   12.21934071159138   -5.77055490208544
C        26.65748353551547   11.35981124762427    1.39977006451860
C        26.70153600799095   12.74876805161235    1.46010800719377
C        27.46413197304917   13.37882705506194    2.42686347726257
C        28.19468801486276   12.63081045648618    3.33520017243312
C        28.15777203032924   11.24769528711723    3.27677542458383
C        27.39031425877926   10.61355588028698    2.31646564032356
C        20.77777566698465    7.67934757158200    1.41213507072331
C        20.03343010818587    8.63827819423726    2.09178416097204
C        19.12592847267297    8.25459998679014    3.06234041455546
C        18.95868350791451    6.91430490882675    3.36930043936543
C        19.70016968978529    5.95597364471464    2.69883076468595
C        20.60321471640287    6.33476067733576    1.72181944611620
C        21.19587665455024    6.99394615229701   -5.48660537169458
C        21.06608205154141    5.61033313114508   -5.54456103844502
C        20.28938663376758    5.02327629604108   -6.52721920334984
C        19.62961799442683    5.81138960694379   -7.45527731688350
C        19.75100861592873    7.19007670322874   -7.39916980097881
C        20.53260393693199    7.78073068146068   -6.42297611553310
I        22.37556297495859   11.50504920189276   -2.32241649861945
H        28.23733232566021   11.77190366857088   -3.38815123198513
H        28.12155056372817   11.96617744261051   -0.71222512519865
H        24.83320916663866   10.25755622437273    2.97917027807268
H        22.57364247535724    8.81001395388203    2.98075605178116
H        19.56046943454282    6.64798354308067   -0.70636105240514
H        19.72623958077588    6.37844724032335   -3.37022270384700
H        23.13281960138865    7.90565342549844   -7.03479573060059
H        25.33998395130490    9.43107298937744   -7.05293530859329
H        27.79189666105995    8.94598935758101   -6.01346133496355
H        29.29424656021792    9.85306276876727   -7.74245397308496
H        29.31677630002451   12.27504908979762   -8.21335497913670
H        27.83077883321372   13.78632017205747   -6.94852491995294
H        26.32898621273808   12.87568123733866   -5.21649946919236
H        26.12578195441734   13.32779599082386    0.75301658742348
H        27.48807786195725   14.45757156003076    2.47075256829368
H        28.79172125943196   13.12427993609283    4.08759221473208
H        28.72778889296338   10.66020312534256    3.98164149315118
H        27.36356123775003    9.53408694584834    2.26663659910646
H        20.16285505786505    9.68167228389234    1.84423887815608
H        18.54747153228347    9.00479968342806    3.58073109106903
H        18.25164383904547    6.61659951771398    4.12925153379619
H        19.57469817186521    4.90968533623151    2.93645476665368
H        21.18593571747088    5.58822854577537    1.20067787351353
H        21.58493718037863    4.99597689227717   -4.82218513091555
H        20.19871346961609    3.94759043994760   -6.56786604064384
H        19.02149327667103    5.35170749198295   -8.22008113469420
H        19.23519846162785    7.80865047324441   -8.11854411675723
H        20.62461693668692    8.85572018186729   -6.37094700536676

