84
CSD_code = GISJAT | q = 0 | S = 0 | Stoichiometry = C46H31MnN4O2 | MND = 5
Mn       12.08094296040933    7.57451336328502    6.32427362033755
N        13.57208730934395    6.47637134171543    5.58419299686886
N        10.86442762413190    6.79741707505041    4.92307371884122
N        10.66475859602665    8.92408689040289    6.77887600703838
N        13.37256697126385    8.61559918417932    7.41860046342444
C        14.86859679333027    6.46103254864019    6.02725496598049
C        15.61916744811892    5.44314535034423    5.35464891721594
C        14.77167901042081    4.83952781268752    4.49010670585655
C        13.49616565800865    5.47308655513563    4.65214956230728
C        12.35994501140099    5.11201920382643    3.93515825845261
C        11.12982355744360    5.74640759596791    4.08433223433083
C         9.94249306195054    5.34317774213015    3.39150713221485
C         8.94734731545963    6.15484727163967    3.81770715433291
C         9.52743117953024    7.05680661878722    4.76784594868935
C         8.80028955488588    8.03478416829413    5.43875739684442
C         9.35608336677707    8.90476958257479    6.37150878227876
C         8.61277239824282    9.94365269134611    7.02028089572112
C         9.47378877657999   10.58415417067464    7.84457766996630
C        10.74651972957729    9.94535833654018    7.68963305706641
C        11.88911044726837   10.31949038504224    8.39131259608583
C        13.11691491059234    9.68321536278424    8.24066053011313
C        14.31055642007416   10.09226271757988    8.92092085147104
C        15.28930632214955    9.24275765978989    8.53364221493443
C        14.69703894597504    8.32231023814644    7.60960018244091
C        15.41072376300113    7.30357886616739    6.98985609285149
C        16.80944483476770    7.08053721059839    7.41619344457741
C        17.04762480761966    6.55094216774509    8.68041989740324
C        18.34457354817276    6.32457293147232    9.10370342774208
C        19.41170577589832    6.63108800844389    8.27466234714747
C        19.17828253988270    7.16043370303472    7.01660435892985
C        17.88189884340284    7.38188014881153    6.58524971120893
C        12.46069404933427    3.99090350869031    2.97567293946671
C        12.71894249995652    2.69983574591383    3.42512140897735
C        12.81153158695666    1.65277066837354    2.52612055399484
C        12.65421631797041    1.88331355525655    1.16952062647935
C        12.39979171020685    3.16636745196598    0.71478726391256
C        12.29987526726060    4.21446615988588    1.61187568819986
C         7.35338219713219    8.15359556865889    5.15146763817787
C         6.41769987392774    7.84068294715658    6.13225340678229
C         5.06459907929716    7.94776137754183    5.86641416699850
C         4.63103417823961    8.37475887888076    4.62223227676338
C         5.55700404307185    8.69148270156933    3.64246539144009
C         6.91091109566077    8.57884301640182    3.90314805845424
C        11.79402114901231   11.44247724275815    9.34905550511985
C        11.97092537110285   11.21892925205277   10.71084023531972
C        11.88144788936485   12.26767179603320   11.60813540352303
C        11.62182377887596   13.55085153734595   11.15610355903404
C        11.44897718087581   13.78128445832070    9.80156084422045
C        11.53113459332563   12.73351906858923    8.90218687794222
O        11.45010132790972    6.29179065986515    7.69602497730102
O        13.37247420378864    5.90929999385121    8.73583187875264
C        12.17702650318197    5.71961501999894    8.59210686767133
C        11.39121815664909    4.76480227003996    9.48606348150317
H        16.65542155542975    5.23050322789712    5.52894660802730
H        14.97840949603309    4.04282758154878    3.80267945629982
H         9.88542880391261    4.53423359131418    2.68995448213443
H         7.91366513774091    6.14324981584913    3.53297866259721
H         7.57349418749531   10.15010647275544    6.85550048166993
H         9.27535779745468   11.40701996410206    8.50275952724707
H        14.37858791407309   10.92439443873366    9.59401488598238
H        16.32056074887707    9.23548489566601    8.82753681162347
H        16.20253739896710    6.30997200645491    9.30730033204253
H        18.52498085102960    5.90809944670764   10.08391677426799
H        20.42437947069243    6.45671095302189    8.60768920208053
H        20.00837154153229    7.40103302309118    6.36818584637385
H        17.69700698154208    7.79740396862390    5.60475379790513
H        12.83656559023410    2.52365261115766    4.48431649752731
H        13.00771231450621    0.65318811328780    2.88538931865490
H        12.72961585392172    1.06537543199816    0.46844176821898
H        12.27860247495505    3.35160507062593   -0.34256350003953
H        12.10594088300213    5.21704479229156    1.25861304821924
H         6.76101092096312    7.50441167246236    7.09955540562776
H         4.34571026098517    7.69757280687814    6.63283590015859
H         3.57433905451373    8.46050234389814    4.41659029346864
H         5.22356734362402    9.02726134662152    2.67135232902413
H         7.63497200688450    8.82941746791798    3.14124640626798
H        12.17017138737517   10.21598305838179   11.05881615006221
H        12.01574176575677   12.08322754321119   12.66390409021247
H        11.55498195203224   14.36938512862246   11.85737148587710
H        11.24952276111480   14.78094205661397    9.44392182123115
H        11.40229975968041   12.91247517565175    7.84437033766012
H        10.62989717809770    5.32696293216969   10.02063488002949
H        10.89849158992847    4.02016434573080    8.86678649669692
H        12.06435548283600    4.28513893472747   10.18950021014956

