67
CSD_code = GISNUR | q = 0 | S = 0 | Stoichiometry = C34H29O2PPd | MND = 4
Pd        2.40448623867039    1.96444605030307    3.21281806889491
C         0.51009244630098    0.46199581006366    5.02029525514332
O         1.13480657228515    0.50709054360258    3.93990670337707
C         0.67845400437058    1.33373635833628    6.14876093422523
C         1.31451076035473    2.61924657350229    6.02467709900377
O         1.77084789590611    3.11375176180367    4.94177588199532
C         1.38572129045551    3.41827824284679    7.20477094285053
C         0.92572691908663    2.97851166664029    8.40991631425125
C         0.35341612866372    1.70470823736122    8.52938671701287
C         0.23060280853610    0.91530901877497    7.42047536016584
C        -0.50642966914961   -0.62679746030071    5.11317046918796
C        -1.79481082198433   -0.38409632222248    5.58148772231233
C        -2.72841479787801   -1.40409884340543    5.59870331887371
C        -2.38647670697832   -2.67082627221221    5.15340175666172
C        -1.11047607646018   -2.91353709124172    4.67213991674042
C        -0.17771782919203   -1.89380356812640    4.64041902762746
P         3.75833476915693    3.38588707004993    2.17870028229713
C         3.82377719053773    2.70192688356573    0.49475048120415
C         4.23066886716956    3.39260589605458   -0.63847177905839
C         4.13576857116524    2.78207762953513   -1.87664674665663
C         3.62722030026789    1.49532968941394   -1.97325908646265
C         3.22328877837801    0.80807649073418   -0.84187142660479
C         3.32072306076933    1.39830122861399    0.41524941495986
C         2.92763471814890    0.70610204496670    1.67401981663554
C         5.49032140685036    3.57559303437272    2.70134869436066
C         6.52529000164539    3.12198404655071    1.88852768900241
C         7.83967356000227    3.20915624805787    2.30979102459012
C         8.12767801489549    3.74068386901261    3.55510874860783
C         7.10096674832103    4.17578243757224    4.37520270668517
C         5.77504779759418    4.09764121850888    3.97135497744370
C         4.67345914856767    4.56686950624896    4.86220500740520
C         3.17515734764540    5.08398014074018    1.85780415234081
C         4.07037777889236    6.14703458658585    1.79942850783899
C         3.62535959174326    7.42719089822209    1.52353628181824
C         2.27716311185661    7.65019740818882    1.30465358356657
C         1.38340766347446    6.59435712339399    1.35825566188305
C         1.80992310104052    5.30140678644709    1.63118551781305
C         0.82553370393808    4.17445743134275    1.68841019452080
H         1.84494707435184    4.39084254679089    7.09963617892003
H         1.01258548280779    3.60821747483000    9.28453768717219
H         0.01934570290087    1.35035132094618    9.49267034693608
H        -0.18582428929259   -0.07702456995546    7.51869915302923
H         2.82682796453594   -0.19345063498710   -0.93304458959129
H        -2.06398504054595    0.60668584310416    5.91760952096364
H        -3.72751071469925   -1.20998374104375    5.96057475401908
H        -3.11683134529070   -3.46632559624926    5.17512287656114
H        -0.84395099556985   -3.89833863100161    4.31731307935007
H         0.81834489177736   -2.06961461003776    4.26120686552873
H         4.60154725931156    4.40455908170015   -0.54912381820252
H         4.44287401801395    3.31144649108610   -2.76636024716509
H         3.54287833412245    1.02548074635908   -2.94257284335995
H         3.79326451295354    0.13503108197627    2.05685539191836
H         2.10969844680459   -0.00496719541175    1.48504791802662
H         6.29631560346254    2.69735147702302    0.92132565037119
H         8.63558590746892    2.85898146016083    1.66942483058547
H         9.15175247749364    3.81017913173198    3.89136973319783
H         7.33143977611801    4.57916282697345    5.35120416588410
H         3.85925128725880    3.83511859104250    4.88232978150214
H         4.25689748674152    5.50537635553053    4.49296675951705
H         5.03300157225194    4.72467107599398    5.87663095200994
H         5.12301150673597    5.96709537616233    1.97088688898088
H         4.32847292524736    8.24579944473835    1.47967956672086
H         1.92078148747401    8.64681864311984    1.08998595684009
H         0.33277020278482    6.77823481956935    1.18359964891633
H        -0.16355831124677    4.51360652453702    1.38717472536166
H         0.76089007844520    3.78868285280757    2.72077488456137
H         1.13196230246967    3.35545543860698    1.02478498889765

