31
CSD_code = GISNAX | q = 1 | S = 0 | Stoichiometry = C13H11MoN4O2(1+) | MND = 9
Mo       -1.83292887577673    0.22707060342575    5.48737218038099
C        -3.77011146609362   -0.07633211351992    6.63351451345798
C        -3.82510296853579   -0.91873397116655    5.48489559825847
C        -3.84681347895347   -0.09167392235211    4.34102042846731
C        -3.80648034865929    1.25331581500640    4.76520470992467
C        -3.76000015389268    1.27318218477990    6.17642987728362
N        -0.86274754354476   -0.56733464672699    3.76264349381133
C        -0.81505018814682   -1.80654631031146    3.20629573671756
C        -0.11262235326575   -1.74539531594429    2.03799258167951
N         0.27513381025081   -0.44743324572170    1.87220915062525
C        -0.19802720810523    0.24930328427907    2.93494774407305
C        -0.16941036277649    1.59786426402256    3.35623527540809
N         0.34579145044855    2.75616491747199    2.87538770573655
C         0.00753924941583    3.74252920918596    3.75599374998550
C        -0.70810382807388    3.15512653543793    4.75840106150915
N        -0.81264924449925    1.82304337280986    4.50919338540865
C        -0.72831070999333    0.93093983917078    6.92266853448931
O        -0.07062784972157    1.31813094761621    7.77324060981777
C        -0.80942382398613   -1.24016201652027    6.24681626237590
O        -0.19726466739178   -2.08464135248129    6.71333968916481
H        -3.95738960981485   -0.39241557942144    7.65431434753632
H        -4.02196777665229   -1.98278614510171    5.49846455624477
H        -4.02513222845221   -0.42505999781188    3.32558513274815
H        -3.95033475594845    2.11765481550334    4.12775812001564
H        -3.89913220658929    2.14646600372566    6.80040178359807
H        -1.26948297695464   -2.65759970358283    3.67491467552913
H         0.13623511670093   -2.51001513817801    1.33152963765273
H         0.82555188376612   -0.09410989278263    1.10587975309698
H         0.89347276760412    2.88093197578216    2.03903354561763
H         0.29553483993393    4.76285880490943    3.60837551066178
H        -1.13554449229227    3.60455677849555    5.63334064872296

