57
CSD_code = GISQEE | q = 0 | S = 0 | Stoichiometry = C16H32N6S2Zn | MND = 6
Zn       -0.00033499968094    0.00013403503510   -0.00010976067788
N        -0.08929717059038    1.80598302751246    1.12408941533588
N         1.76705221767146   -0.71125487651472    0.93317285126435
N        -1.03042109847807   -0.85325811625622    1.42683424577063
S        -1.83308640790267   -3.11656344844873    2.78608627752698
C        -1.37604186999852   -1.81601591439235    2.00945225120403
C        -1.04545303053834    2.62735473505052    0.38751567511171
C         2.24743930414667   -1.78313068262767    0.06071376433644
C         3.28475022420078   -2.67968969354324    0.73693952205345
C         2.72560859229342    0.36018234143014    1.19334101274066
C         2.13411700167526    1.44154717636637    2.09954357159452
C         1.19527621917880    2.44704079738738    1.41711449565260
C         1.03437164802733    3.68168017204396    2.30980297932058
H        -0.51976091954282    1.54686799963168    2.01045648707339
H         1.50815110516322   -1.13187200501413    1.82430118710385
H        -0.53784685013371    3.02624438379129   -0.49453327168454
H        -1.41700716484725    3.46759826643957    0.98676225974819
H         2.68610411727144   -1.30331894317723   -0.82110557961739
H         2.85795483886421   -3.14568107718982    1.62318261349545
H         4.16351719724544   -2.11133032724581    1.02904047108109
H         3.60580016613596   -3.46553790181722    0.05855022124718
H         3.00526233436109    0.79928194912332    0.23399828770030
H         3.63340762953874   -0.03068591101558    1.67376322047696
H         1.60399491731353    0.96533213917019    2.92840950646484
H         2.96787094064826    2.00485341300427    2.52192520769953
H         1.63160809203869    2.75098294116883    0.46081372455422
H         0.55741510784008    3.41186609470519    3.25073359274280
H         0.43657207605884    4.44431885640645    1.81902012706386
H         2.00585984456894    4.11563149367361    2.52913833298748
C        -2.24748435574395    1.78334093229673   -0.06103905870491
N        -1.76727301577627    0.71125151386547   -0.93342246784899
N         0.08921655287238   -1.80605575603380   -1.12424897002660
C         1.04552756388481   -2.62735290092727   -0.38773025847082
N         1.03002392196303    0.85378345138126   -1.42755761211322
C         1.37673534121035    1.81626263823441   -2.01005176684534
S         1.83670679529177    3.11679769814521   -2.78512531552840
H         0.53802149989680   -3.02639986649709    0.49430845069360
H         1.41716703101700   -3.46748351036585   -0.98706802475519
C        -1.19548580043625   -2.44713905474694   -1.41680037711152
C        -2.13441508206420   -1.44180826532053   -2.09933970857072
C        -2.72581214957716   -0.36038720299352   -1.19311396754832
H        -1.50887347853434    1.13170057523622   -1.82476996963009
H        -3.00518219840592   -0.79933998931085   -0.23361968885094
H        -3.63377042268205    0.03032177846301   -1.67333435357961
H        -1.60429288638810   -0.96559285857607   -2.92821058897981
H        -2.96814952427497   -2.00515906641318   -2.52171958009323
C        -1.03491521997839   -3.68205369800897   -2.30917148395145
H        -0.55820417201621   -3.41261729301370   -3.25033078792619
H        -0.43697651398556   -4.44448376543617   -1.81824845165076
H        -2.00646044338977   -4.11611101849577   -2.52805370453475
H        -1.63157581968057   -2.75082048691100   -0.46030329990837
H         0.51949132100711   -1.54719687037038   -2.01077921906890
C        -3.28444798648279    2.68013832468982   -0.73746779916122
H        -2.85722374199019    3.14630871598717   -1.62340933914315
H        -4.16318509118262    2.11199253013107   -1.03006585307724
H        -3.60563130010917    3.46586536531809   -0.05900031009115
H        -2.68641488697721    1.30367715496618    0.82072081710675

