54
CSD_code = GISWIR | q = 0 | S = 0 | Stoichiometry = C19H26CoN3O4S | MND = 6
Co        3.83081983132185    3.70885680628934    3.24820678354259
N         2.13359671044453    3.27096670789062    2.03308016684627
C         2.32265647083835    2.03685678876299    1.24579670637902
H         1.42585442949454    1.87426750516296    0.62760498356934
H         3.17403334522825    2.20400613621269    0.58308844268626
C         2.58797442934963    0.76556767386641    2.04888526152142
H         2.69298972243633   -0.05769122064296    1.33964787956152
H         1.74346417787354    0.53535161719889    2.70207631501321
C         3.86603021511446    0.85599098840427    2.88791297645359
H         4.04041891384921   -0.10358596917130    3.39184458417258
H         4.71300702473128    1.07843734897119    2.23579563145832
N         3.72902316482934    1.92102230432603    3.85158238676707
C         3.56120214035430    1.60354108577053    5.08956244057511
H         3.65092251214178    0.54888943226566    5.36538455094119
C         3.21466818405649    2.48016838741047    6.15098441693938
C         2.81186069267634    3.81334672752578    5.86772229313808
O         2.78004146540225    4.30997658514920    4.68902574748845
C         2.37522152633228    4.61979683587804    6.97465940115896
O         1.97615398446562    5.87801866073504    6.61974865299612
C         2.39044748188376    4.12090381511273    8.25245219024707
H         2.08284582318318    4.73294558559151    9.08620030487494
C         2.81042485046691    2.80669504737911    8.50671052529921
H         2.81227157757680    2.44465520429905    9.52319048364102
C         3.20379043751469    2.00162916972927    7.47730819448472
H         3.52222663664534    0.98623471964105    7.66489882337381
C         0.91543549797839    3.16830421283742    2.84057825110179
H         0.04796691314767    2.95660374792066    2.20248556697382
H         0.75542058624339    4.10730945031405    3.36530845422032
H         1.00847119985167    2.38326145564333    3.58679695937432
C         1.92964358536978    4.35853441954848    1.07103694709957
H         1.07478818566345    4.14063538770212    0.41862233910707
H         2.82253838864172    4.48501103468360    0.46339831100830
H         1.74523915379467    5.28484446080106    1.60736595399473
C         1.56611462602805    6.75424151261947    7.63590240045010
H         1.30613629367931    7.68625826297125    7.13603410041342
H         2.36986480475201    6.94308117433722    8.35617996826056
H         0.68744754436240    6.37302219847422    8.16858869266612
O         3.86569815694111    5.50812832971723    2.67641199236747
C         4.71494259466971    6.38037334796840    2.99567031449052
C         5.79142827540252    6.18446860938737    3.86342345784808
H         6.46410370526564    7.00398875338439    4.05475753186623
C         6.02605162563450    4.96039519408051    4.47833806682703
O         5.32835649276376    3.91443391000723    4.34005869803861
C         7.22535770422258    4.83049344121676    5.38898988564477
H         7.13472567864170    3.92765616058058    5.98739417595866
H         7.31198681649848    5.69979806185345    6.03498742869094
H         8.12408814593225    4.75961343452451    4.77805757454808
C         4.55839951358010    7.74580976084716    2.36572788385009
H         4.58772594091093    8.51910443404614    3.12874034749570
H         3.61878109666816    7.79855293820439    1.82286621622085
H         5.38029827498077    7.91409197038156    1.67247239772109
N         4.94222779709594    3.32739300300258    1.81138326233419
C         5.93636632264955    3.65769508202478    1.26664002659952
S         7.22684933041525    3.99014830716052    0.42261265170305

