48
CSD_code = GISXEO | q = 0 | S = 0 | Stoichiometry = C20H20MnN5O2 | MND = 5
Mn        3.14422108376582   12.04786671341265    6.19102976529280
O         2.72183955169354   10.32584354715200    5.81256082773810
O         2.15545926793858   12.80687134940930    4.95129559067576
N         4.97608952840755   11.67127204395993    6.34909480959374
N         3.79194585074321   13.93820738064204    6.53697772359321
N         2.67950434565652   11.79621439654595    7.97825194467392
N         2.91107980604236   11.94176727496077    9.11774316140615
N         3.06853701950609   12.03532819082388   10.23946043328474
C         3.46366594361404    9.34800082024002    5.43876382459361
C         2.86788687944910    8.14055163164151    4.99218201203845
H         1.78910784038717    8.09750197824922    4.97827411266002
C         3.62830578456394    7.07957935549753    4.58533746028611
H         3.14984972953661    6.17344577984826    4.24364965822043
C         5.02856263404907    7.15265193615038    4.61005257739595
H         5.61437248033909    6.30433800714062    4.29025342647140
C         5.64332042186374    8.29537230542205    5.04100894650471
H         6.72265711965872    8.35681187139159    5.06727271786440
C         4.89857734430911    9.41801746882455    5.46114122293708
C         5.56409066121382   10.58493023729293    5.89578337512319
H         6.65091507233580   10.56662785986459    5.83282267574008
C         5.85931163560176   12.76127601868134    6.78067975935565
H         6.36293485245230   13.16413002608097    5.88645154467019
C         4.97379350421141   13.86620087535078    7.38559376516636
H         4.62608981085765   13.51710759780505    8.36677062852388
C         5.81068103333534   15.12305161174280    7.61982794287605
H         6.25252652118190   15.46993371476595    6.68274641179197
H         5.19369707120516   15.92117005736372    8.03561476440479
C         6.91282856709090   14.77580703619909    8.62223846053753
H         7.54349565713772   15.65051708803635    8.78925339395140
H         6.45286148087100   14.50703200580423    9.57477590350442
C         7.77015976928678   13.61263993369860    8.13136707524368
H         8.51001677292335   13.35902853246928    8.89167987174076
H         8.30885901924754   13.91462138673371    7.22978744961635
C         6.92049638425002   12.38151748484993    7.81782442240311
H         6.42211515015559   12.02043544718577    8.71941424807571
H         7.56550410532915   11.58438810774244    7.44754291597609
C         3.41123603899602   15.05645774568083    6.02625100779193
H         3.93497693158649   15.98306134358056    6.25659071677236
C         2.31670844728460   15.16685035822992    5.10291512046605
C         1.85665531772487   16.41236152521071    4.66890631658760
H         2.30949857844288   17.30612999730715    5.07464615412288
C         0.83450622123487   16.50719045619947    3.74889321933940
H         0.48028914357240   17.47484726992019    3.42876794468802
C         0.26222807871515   15.34990383044139    3.23191725154564
H        -0.53790433940120   15.42344618649699    2.51027655953780
C         0.70576437521126   14.10639721151696    3.62868882352336
H         0.26674173253371   13.20317262912458    3.23161153981049
C         1.73103977389038   13.98192437331243    4.57801052188453

