54
CSD_code = GISXAK | q = 0 | S = 0 | Stoichiometry = C21H24MnN5O3 | MND = 6
Mn        0.15371511138607    3.59603670347736    3.08535071678881
O         0.63986117684494    4.92318046728661    4.34600084005909
O        -0.73219343455047    4.93982274077041    2.07697630071558
O         2.10068740167951    4.51250430011127    2.09519346387292
N         1.20288339663172    2.29660787315993    3.96387119711797
N         0.09397955170740    2.38075165635448    1.63795382602525
N        -1.38672031942401    3.04146758549051    3.90345486567246
N        -2.35689918999049    3.52524024773190    4.35903146969483
N        -3.34010789395460    3.83541929960425    4.83089785277284
C         1.47701941477390    4.86808281734928    5.32114628219538
C         1.74022358365011    6.04146121020139    6.07368773915019
H         1.19344179648063    6.93320493865331    5.80451779177431
C         2.62968943058787    6.04114669876680    7.11371749882959
H         2.79987463723532    6.94737258340755    7.67681554412406
C         3.32170194666817    4.87437815832092    7.45780198951583
H         4.02023415725515    4.88601458800419    8.28058061958519
C         3.10383958674148    3.72324720376489    6.74787659488362
H         3.63329801887923    2.81704895097144    7.01016511120420
C         2.19343253383178    3.67869646179550    5.67579804158047
C         2.01245733478576    2.46023849899885    4.96569705574028
H         2.61209983409646    1.62534031382642    5.32370152156133
C         1.00264358725887    0.98118670624204    3.37107315187462
H         0.00325852437418    0.65974690987342    3.70376770050513
C         0.92716953142827    1.19739774041737    1.84890645757642
H         1.94197371406730    1.43852596198556    1.49148591441313
C         0.46422850810808   -0.09780810676125    1.17468927284012
H        -0.53984537399134   -0.34179157371878    1.52656694760494
H         0.42785587827720    0.01323903187371    0.09044816320632
C         1.43617606534652   -1.22725346516985    1.51011813798107
H         2.41814828748856   -0.99198841743256    1.09233558075894
H         1.09057337589176   -2.15285705055973    1.04669815333164
C         1.56091216555253   -1.42009068572353    3.01628566206353
H         2.28236361241829   -2.21105209126715    3.22889620656728
H         0.59572486320849   -1.72883459764718    3.42242769773586
C         2.00144321792494   -0.12829227114401    3.70246319034091
H         2.03423717330400   -0.30159179483804    4.77910555110027
H         3.00075327622513    0.15454711082821    3.36265961164433
C        -0.42593407130437    2.58168690471558    0.45810761369966
H        -0.26890062243251    1.84632043462439   -0.33030498170402
C        -1.17656489683549    3.71993828134547    0.07163151725789
C        -1.77485349353798    3.75384795077901   -1.20411101431815
H        -1.67779762890939    2.88357191757607   -1.83939167059547
C        -2.47713383784159    4.84498155698932   -1.63748185607457
H        -2.93815170828475    4.84708489010221   -2.61343415649093
C        -2.59958832334677    5.96704939165657   -0.80625873284801
H        -3.15815382912662    6.82503617069972   -1.15127332569095
C        -2.01900453153521    5.98396046799669    0.43103544353920
H        -2.10741623769649    6.84102702987751    1.08175107234633
C        -1.29299112774175    4.86803400404826    0.92663220592738
C         2.32416746935117    4.80198631682509    0.72813764446007
H         2.43296696770041    3.85177270955255    0.20603578026508
H         3.24620477081984    5.38040492065699    0.61001067528291
H         1.48915480400811    5.35467932224598    0.28748263711052
H         2.00816181451394    5.35317102529493    2.57116742541981

