51
CSD_code = GISXIS | q = 0 | S = 0 | Stoichiometry = C20H22MnN5O3 | MND = 6
Mn        6.70610238633295    3.49362198958454    5.42584618757541
O         6.28213633068661    5.31957634971709    5.67285318241380
O         7.68995409749065    3.94595871052375    3.86833171446992
O         4.89485188955187    3.66144179599547    3.87673310824179
N         5.44243094051427    2.99447155146797    6.75623022000201
N         6.86315864731257    1.64899685721060    5.07183496224919
N         8.17743293129775    3.49562687836654    6.53071752201353
N         9.10342858718992    4.19313746818179    6.72590039769987
N        10.03928396932808    4.75546571648269    7.03241469154149
C         5.68501241082555    5.90536056128880    6.65008854452969
C         5.70555146444922    7.31994245136716    6.73879437261459
H         6.27433807101982    7.85411530117911    5.99249512343062
C         5.05986325635201    7.98012542383853    7.74870742722033
H         5.10954359346250    9.05780010471124    7.80481906433743
C         4.33160084503182    7.27246051415788    8.71250851703556
H         3.82367859152283    7.80625083558148    9.50117688864672
C         4.26787858041601    5.90605889356094    8.64661871308323
H         3.70477830457209    5.35236928356752    9.38571103348432
C         4.93638018823451    5.18679964602351    7.63828188136464
C         4.79664175000335    3.77455003235865    7.57275633763301
H         4.05665343211847    3.35586979691335    8.25254212181847
C         5.11022688474522    1.57198827953831    6.70425026043778
H         4.32134977557778    1.45418494315041    5.94355406796526
C         6.37145845145897    0.85273986037707    6.18791991547589
H         7.13889312186580    0.93708428361855    6.97311176037793
C         6.08534320484779   -0.62944658924237    5.94476900789219
H         5.31897610374430   -0.73952859514823    5.17358832267667
H         6.99100574418009   -1.14086430592832    5.61490959984426
C         5.60991881221362   -1.27181576850724    7.24589422446946
H         5.38906854760917   -2.32660993785848    7.07309880879218
H         6.40890898030636   -1.21350191091402    7.98758583797434
C         4.37089266240551   -0.56492695439798    7.77940402448706
H         4.05763558403361   -1.02455373906425    8.71832233321531
H         3.55301201810932   -0.67762696333389    7.06375220954396
C         4.63735710213622    0.92152710461007    8.00739972845665
H         3.71343863835942    1.38201801659946    8.35946594581615
H         5.40430250514429    1.05649093837958    8.77262420712162
C         7.32329180016586    1.08071091426359    3.99679793665844
H         7.27567373990857   -0.00112985694667    3.88995849945323
C         7.92135092444215    1.76589277425423    2.90489212604437
C         8.37435545405979    1.02731507122884    1.79465220304069
H         8.25159553924470   -0.04735099433741    1.80934804671346
C         8.96071862879772    1.63595032945359    0.71756534818051
H         9.30277795022940    1.05099402922401   -0.12246556290359
C         9.12217404145793    3.02713661855905    0.71091783718639
H         9.59040434337501    3.50451431374901   -0.13758854822073
C         8.69616142582784    3.78243572437551    1.76858121481453
H         8.82206655179598    4.85487007709306    1.77959898559185
C         8.08601441911485    3.19179444871622    2.90652553860571
H         4.69676937527334    4.59878606994329    4.00770511935253
H         5.34975740185817    3.60772165646612    3.02699898952902

