40
CSD_code = GITCIY | q = 0 | S = 0 | Stoichiometry = C20H10F3O5PW | MND = 6
W         0.79742623986493    5.27568752894808    3.58845327890827
C         1.59681640184033    4.38325523465778    5.19855295365070
C         1.99674094932145    6.85853984503938    3.86387730917736
C        -0.54494928491740    6.12926610266747    4.77313759181024
C         0.01385110371470    6.17111861209889    1.97927443573878
C        -0.41415522141399    3.70745000031791    3.30177461938215
C         4.10819419500902    4.00751020070338    3.05552242645698
C         2.61015043909805    3.03777663123278    0.79183047463036
C         2.97669473106076    4.26960068474663    0.40266959109761
C         3.36802858794147    5.20813428879527   -0.59364453488670
C         3.66562313707648    4.81967781807152   -1.90258010352606
H         3.61439926724167    3.77700621031110   -2.17538886099118
C         4.03073074326089    5.77154509270996   -2.83334756161278
H         4.26237427592759    5.47064335270490   -3.84414934346763
C         4.10101737806160    7.11015259068542   -2.47664418816890
H         4.38614245891440    7.84811727169190   -3.21107247190850
C         3.80935414228181    7.50227522506590   -1.17844336165761
H         3.86677259764638    8.54392321706286   -0.90139015908421
C         3.44901803901272    6.55823657932114   -0.23955767388209
H         3.22067650606069    6.84442136435000    0.78022388525750
C         2.31215472064031    1.67224106747942    0.51965527678374
C         2.44257185320555    1.12482033978060   -0.75956362545148
H         2.78122880374619    1.74544408044272   -1.57466131502660
C         2.13374127677485   -0.20400815478187   -0.97045456750366
H         2.23486815706470   -0.62674247515583   -1.95889172727940
C         1.69409382375654   -0.99686104921692    0.07951036598241
H         1.45477345231276   -2.03502807108982   -0.09442010188079
C         1.56218125388466   -0.45969964832417    1.35154317755258
H         1.22027873581781   -1.07758213268584    2.16780553779023
C         1.87048735330023    0.86636899079738    1.57343930783932
H         1.77921342566242    1.30265598753635    2.56068719095871
F         4.33508599934538    5.07822012304034    3.83495992846291
F         5.17822297450846    3.84699572546827    2.26802996697855
F         4.05036025599229    2.94058518377047    3.86986957773721
O         2.02729552350593    3.89494731499984    6.13134740356192
O         2.64535511602515    7.78089953160084    4.01875789588214
O        -1.31836450267907    6.61790568275445    5.45508037724373
O        -0.41347196751003    6.67719299666962    1.05043083027162
O        -1.10267470275132    2.81674460965707    3.12115182658506
P         2.47199176040201    4.23516204608107    2.14152436658057

