25
CSD_code = GITCUH | q = 0 | S = 0 | Stoichiometry = C10H10Br2N2Zn | MND = 4
Zn        5.46642025750761   16.11481963136984    2.06304413543989
Br        3.65558898365151   14.84120021621753    1.24506338206717
Br        6.89011046977713   17.91712245873678    1.52058790962327
N         6.89370975307292   14.56372309173689    2.66114433915835
N         4.78409387330781   16.65369323405899    4.07414585942736
C         6.53383986916822   13.28401168494227    2.70606006459833
C         7.41995202887205   12.26804730036080    3.01744102263249
C         8.73831051655492   12.59363628917632    3.29502802902413
C         9.11226380190639   13.92738428306293    3.25123230318996
C         8.15829926464563   14.87656663440923    2.92984060158332
C         3.73150296691411   16.04900355946688    4.61761238043930
C         3.22402845987591   16.39919408363944    5.85626340043574
C         3.83522564481420   17.42271540169491    6.56295402284510
C         4.93386934112901   18.05060140511631    5.99784953863484
C         5.37270744127061   17.63394834022333    4.75362617231673
H         5.50040980080684   13.06538417384243    2.47529914776927
H         7.07910762583627   11.24533166360928    3.03497255981303
H         9.45787135512901   11.82571103003804    3.53639492937096
H        10.12601785461102   14.23255131852359    3.45537936921017
H         8.41808704225505   15.92458553636663    2.87441509723710
H         3.27344555434621   15.26199381307938    4.03474474351524
H         2.36473331924938   15.88067903828148    6.25028684236563
H         3.46211129446657   17.72615848673587    7.52964545982153
H         5.44243127687948   18.85455668567862    6.50521855860990
H         6.21936220395426   18.10948063964361    4.27795013087780

