102
CSD_code = GITCET | q = 0 | S = 0 | Stoichiometry = C50H42B2ClIrN4P2 | MND = 5
C         4.51225577088272    8.57522116585734    4.58701283898502
C         5.10334372361577    7.82953992404108    5.59137356357962
H         4.72750648759412    7.86065445193603    6.60302707604432
C         6.19274467093102    7.03698591840892    5.26192471321736
H         6.67413157279892    6.45409864853708    6.03294075531746
C         6.67337710515722    6.97918219790022    3.96147982042359
H         7.52616388220393    6.35562691427960    3.73732127251548
C         6.07389663553275    7.70410470027363    2.94323328894281
H         6.44964575973796    7.65281412453018    1.93235148175997
C         4.98851004081958    8.50225952953656    3.26258315809069
C         2.70674534736641    9.65391026971512    5.79432870221030
C         3.33451861316953   10.16952019613998    6.92485985154589
H         4.38343254125449   10.42212190740391    6.88185012017605
C         2.60907298784721   10.37694213760488    8.08339910419195
H         3.09925758459991   10.78641696904050    8.95450161639691
C         1.25914326745417   10.06458960521161    8.13007307447404
H         0.69883850862330   10.22035904870120    9.04000447077346
C         0.63096344656053    9.55170944155547    7.00671284009002
H        -0.42000652599552    9.30492186190966    7.03851530988669
C         1.34849235194521    9.35298769569172    5.84091105930838
H         0.87324514848827    8.95002022880905    4.95969472365008
C         4.34222570907133    9.36448866437775    1.04734115739370
H         4.41168797243230    8.34926361596472    0.63243961819280
H         5.23427390427164    9.92542788234181    0.74700099921382
C         3.28562250750497   11.10017990544594   -1.03510003498338
C         2.75374680940061   12.35901837015110   -1.28468929232337
H         2.05354949815252   12.78226262924632   -0.57780378110827
C         3.10676702375522   13.04699354414848   -2.43211587519419
H         2.69053358028052   14.02465068849223   -2.62643559587616
C         3.99432384217868   12.48007450068997   -3.33203732029194
H         4.27358385990925   13.01688135909802   -4.22693018632913
C         4.52226874196284   11.22111363105212   -3.08929517600992
H         5.20967499665539   10.77909450270836   -3.79607266883772
C         4.16877525922288   10.52913644279193   -1.94559317845720
H         4.57192632890471    9.54369954506046   -1.75791081594007
C         1.84657575023952    8.82235224226010   -0.19579967419672
C         1.64593652674799    7.71864763005842    0.63022349011190
H         2.09124596846077    7.70485480370246    1.61693381836497
C         0.87448118268961    6.65713579892329    0.19830482112190
H         0.72473581839352    5.80189509044042    0.84163546502974
C         0.28364578558192    6.69461168058631   -1.05526597248097
H        -0.32443435143397    5.86731394851051   -1.39091290663172
C         0.46193014343229    7.79929791093464   -1.87015309545369
H        -0.01078567521943    7.83664804699883   -2.84087418292108
C         1.23687933776904    8.86357782752767   -1.44308945355811
H         1.36095005799828    9.73151809529369   -2.07468403888963
C         4.93551954736208   13.09533847543177    4.60018070608293
C         6.13639725125813   13.66837552846441    4.97907585904896
H         7.01319198031815   13.58894797531957    4.35411164637125
C         6.18260639906480   14.35168858102486    6.18508701771715
H         7.11265003036276   14.79839215839745    6.50356188407094
C         5.05690757615400   14.47184284200407    6.98746231341387
H         5.12591437851006   15.00681804583737    7.92308541541383
C         3.84304278301061   13.92157023787719    6.60596334728362
H         2.96932717882953   14.02101505992010    7.23240144256110
C         3.78745855926174   13.23293555191657    5.40605584234757
C         5.52257530710730   12.13455841168899    2.45201009540815
C         6.70402448176435   11.44685489780919    2.71558137726221
H         6.89236376474455   11.07617003108008    3.71210313637853
C         7.61375262818278   11.22224094440812    1.69899410283531
H         8.52425851131823   10.67955462848991    1.90711158891891
C         7.36126766162290   11.68728166154687    0.41749292446539
H         8.07883258440955   11.51654676618696   -0.37129147650497
C         6.18642767958848   12.37183544945568    0.15150357593912
H         5.98598381905846   12.73803406673346   -0.84457396957870
C         5.26667510984416   12.58943771891112    1.16159520654539
H         4.34952028168588   13.12504036891663    0.96975819955492
C         1.39422699631833   12.66228420251272    5.27433181905772
H         1.13380648184847   13.69555163537964    5.54291670788624
H         1.25647773238736   12.02758502818194    6.15683802745708
C        -0.34921320785030   13.61376466275064    3.24340765599345
C         0.52799260266588   14.65320351627227    2.94197075218337
H         1.58802778613264   14.52256296410944    3.11870107422756
C         0.05012281338043   15.83520152222671    2.40986380039702
H         0.73459834255809   16.63949707104783    2.18114355751901
C        -1.30518136309557   15.98436174270565    2.15908231444622
H        -1.67864219574925   16.90630157783016    1.73787074421447
C        -2.17733644012569   14.94568193033636    2.43617861109262
H        -3.23155119029206   15.05531143099830    2.22703699500520
C        -1.70359089758664   13.76107719334272    2.97270659041464
H        -2.38462958347595   12.94635278880173    3.17309898643454
C        -1.07539067288785   11.26546491719207    4.63040551234778
C        -1.66893403587324   11.80884373321794    5.76506774088938
H        -1.27368180861586   12.71865474484778    6.19506712448651
C        -2.76519299047073   11.18719052957027    6.33394325984020
H        -3.22592174039685   11.60777370387320    7.21615841412729
C        -3.27596102876942   10.02672613022162    5.77267826984242
H        -4.13261025966248    9.54462076034449    6.22065030257781
C        -2.69294401738885    9.48867788040593    4.63704371810815
H        -3.09669471655709    8.58863576081549    4.19688267279570
C        -1.59363815084810   10.10612085374192    4.06717839620935
H        -1.13382431417076    9.70583091586839    3.17415146564779
Cl       -0.10741539871817   11.30173330019793    0.85964305521626
Ir        1.76316929854285   11.12023424453566    2.30640150505810
P         2.79004423531219   10.22767915051907    0.47993962589846
P         0.36453995515181   12.04870107040533    3.84609817486023
B         3.20370790321727    9.96666765964416    3.29053764722407
B         3.20029036104831   11.99608237042083    3.54711696274004
N         4.20404563371866    9.30934617677109    2.47827266972902
N         3.42086411922532    9.42439064078861    4.61184778916386
N         4.58929410690093   12.38425507527251    3.46561812357113
N         2.74354863170033   12.60122841955580    4.77906473626378

