30
CSD_code = GITCEU | q = 0 | S = 0 | Stoichiometry = C12H8F3O5PW | MND = 6
C        12.25494124363222    3.47255057351915   10.29335841751070
C        11.02058610223250    4.02814560249605    7.81265500987663
C        11.49217117659419    1.37069722355467    8.66700368591830
C        10.03302537579506    1.87885595291986   11.04411182321032
C         9.62032716622701    4.55484335302493   10.21489780163012
C         8.79088137643541    1.23708744855676    6.92158551311600
C         7.37800417495098    3.57365435706741    7.52450177059176
H         7.75676485326620    4.38013170471755    6.91736746979357
C         6.08494997524267    3.36584751304857    7.84203309854497
C         4.94648156756163    4.20180009569413    7.37650371623731
H         4.40951867086702    4.61643048594775    8.22871253164436
H         4.24558587111255    3.59678856907776    6.80299142452896
H         5.29860220783181    5.01783703529242    6.75181579290953
C         5.86750577148486    2.19373911956143    8.70249140875083
C         4.50051137615377    1.79616565777086    9.13261632068595
H         4.53659561283378    0.90717133820211    9.75598696728740
H         3.87760213385225    1.59123763886427    8.26300034232430
H         4.03226858103567    2.60273200849515    9.69536195285199
C         7.00031309952220    1.53877647333017    9.02509731944839
H         7.06723850827327    0.66228661956035    9.64916182985157
O        13.23763975597523    3.77395594479151   10.78758792920977
O        11.28970321512244    4.64317454084766    6.89329026992825
O        12.08634722305692    0.49454775547929    8.25265554200008
O         9.72754599485149    1.26814741976180   11.95635201308130
O         9.09630899312045    5.46546578018218   10.65879208793014
F         9.76753169430299    1.75036196087972    6.16241328884911
F         9.21924114593576    0.05550198607662    7.38096616624802
F         7.74646409010810    0.99659711051725    6.12238569821760
P         8.43666709642789    2.38747817816088    8.35888649332422
W        10.53837594619748    2.95799055262117    9.43591631449570

