68
CSD_code = GITMIF | q = 0 | S = 0 | Stoichiometry = C29H36ClOsP | MND = 8
Os        2.33268428568220    2.93738320067010    5.01223144152679
Cl        3.66679783054834    1.06438442718507    5.36663165336467
P         4.26653286877980    4.24819515278371    4.92459556220304
C         0.65567903625761    1.57616684821680    4.25398962376637
C         1.43533981443835    1.80313949519021    3.08306145154640
C         1.40128454844685    3.16291237647182    2.79065024623267
C         0.61115824362712    3.81516114480411    3.79157391698303
C         0.09677257717134    2.80627183050476    4.65300752297217
C         5.13137673148278    4.45365616193364    6.57755141669274
C         5.46872554515176    3.09487519241555    7.18438858998113
C         6.37296182028676    5.34238069573671    6.59608794295580
C         3.98066484379209    6.03616615917745    4.44749522723370
C         3.10511033203420    6.70977637999535    5.50068591666560
C         3.31898582430137    6.14871571266450    3.07817344122294
C         5.62870087351961    3.63630697603351    3.78572045497019
C         5.05487084106295    2.78465905033601    2.65562714567412
C         6.55758993154444    4.70549613550114    3.21335358577375
C         2.09612067191250    3.55724508590034    6.80875379573812
C         1.72056253145295    3.98628976353769    7.91251347914918
C         1.34313057240916    4.51259556538549    9.10652683136076
C         2.36067387254004    5.07311120935076    9.98517884066210
C         2.10323191638058    6.19703195048823   10.77498659511955
C         3.09651074681035    6.73533916580540   11.56960716742296
C         4.35995949994415    6.16604717944795   11.59477994094019
C         4.62768554695900    5.05417934695821   10.81083803970103
C         3.64163440040455    4.51410117082042   10.01076393281427
C        -0.06327801915263    4.52743464740533    9.47144876482701
C        -1.04555586079203    4.52891048253751    8.47480599723022
C        -2.38467711253476    4.52706866472105    8.80459344039325
C        -2.77529523428468    4.51504315359060   10.13532119510073
C        -1.81311907811808    4.49721126092279   11.13263979036331
C        -0.47072852388461    4.50339782391991   10.80900273709248
H         0.39896909689854    0.60557170063402    4.65267614234402
H         1.90052538434198    1.03432805784513    2.48562346776940
H         1.81260616702948    3.63405072715908    1.91121056124098
H         0.23626119709115    4.82839842562938    3.73343282874035
H        -0.65309456674987    2.94559195996292    5.41783461617100
H         4.35716652325802    4.91163911321271    7.20492655305770
H         5.92129029867072    3.23371658020649    8.16440001983739
H         6.17032586457134    2.54208401604140    6.56461024130987
H         4.56680404234446    2.49675862604129    7.29158985410323
H         6.66260393319784    5.51177643272367    7.63224930533962
H         6.19726419001334    6.31416367520331    6.14303267424778
H         7.20703408704318    4.85636639033600    6.09668605288858
H         4.95486969655853    6.53096914664089    4.40471100503046
H         2.74961242317033    7.67067436273890    5.13241976457469
H         3.64851744508426    6.88206681434025    6.42528156594790
H         2.24319377440813    6.07881443979323    5.72447755172896
H         3.27642856677932    7.19239118792253    2.76827404862348
H         2.30342365648757    5.76777841061590    3.12494542309951
H         3.86434995760088    5.59300309480074    2.31960051776286
H         6.21008840930797    2.96799903533177    4.43240309435636
H         5.86419674612777    2.35930843809079    2.06395385241365
H         4.42563830222408    3.37422694283225    1.99204348542406
H         4.47254215477046    1.96363300009115    3.06630507933796
H         7.38893720794442    4.21391458963324    2.70912968766145
H         6.96864919312625    5.35206613131848    3.98121326209540
H         6.04621384717185    5.32279856546508    2.47931415144678
H         1.12823254507621    6.66181358404874   10.74107951736459
H         2.88627569046420    7.60742500769403   12.17209856022892
H         5.13183486729446    6.58800441737469   12.22144134438062
H         5.61039423685469    4.60508824924073   10.83033616950222
H         3.83500677949787    3.63927258255979    9.40978087885634
H        -0.73078968087527    4.54807809969204    7.44136008315856
H        -3.13215760253046    4.53687557842225    8.02426199605989
H        -3.82404680514638    4.51396157565801   10.39313179881887
H        -2.11351554748504    4.47321387570518   12.17031828653712
H         0.27245604054447    4.46102375483124   11.59206087071342

