44
CSD_code = GITNUS | q = 0 | S = 0 | Stoichiometry = C20H16FeNO5P | MND = 8
Fe        4.18667180661841    2.03777956710370    2.88003492940899
P         2.90766964732310    1.37542370799222    1.21386447403896
O         2.40981827959388    3.14581235348504    0.91799204949635
O         3.45315398749537   -0.26450379891152    1.34582097439108
O         3.39921758962361    1.32632120943980   -0.34521893594482
O         2.16010246026137    3.83698178573126    3.86722828646357
O         2.72904389278549    0.18710392634241    4.53799693206338
N         1.29355430579109    0.86402117139776    1.37953568290177
C         5.92136878853922    1.58480089270161    1.56487545289009
C         6.25196095800759    1.17976457698482    2.87217283404813
C         6.26023539846158    2.32977936656724    3.70237826929097
C         5.94649932166090    3.44875284714719    2.89784016849428
C         5.70707320065454    2.99293406925775    1.58307739598853
C         2.78243331349795    3.53779812987397   -0.29935852115926
C         2.68371758586537    4.80448917473842   -0.84468690747847
C         3.15637672426309    5.00519264949877   -2.13552378249200
C         3.71573002703694    3.97197945499749   -2.86503353307568
C         3.82420459115586    2.69539743854812   -2.32172978289518
C         3.35496709397841    2.50008703063236   -1.04495834006485
C         2.44438363676115   -1.12253262720453    1.61234786604906
C         2.58023439002555   -2.47221475918800    1.85170090524899
C         1.43478839925967   -3.20975865897371    2.13132028615905
C         0.19570755867036   -2.60023628097008    2.17256476907022
C         0.05917478809749   -1.23663227157415    1.93552793627872
C         1.19230140379443   -0.49995578683364    1.65465977100345
C         0.14650696701865    1.69708692021539    1.66485199637288
C         2.97607882706461    3.15730609712408    3.44636411975427
C         3.36019274127219    0.90272769070900    3.90524388961684
H         5.93081526423969    0.95798105258457    0.68887099784369
H         6.54884809116332    0.18750444601897    3.16657916801622
H         6.57655382454876    2.36110903592370    4.73175928384334
H         5.95394376478662    4.47817426029954    3.21661324388339
H         5.55642011957436    3.61657275859828    0.71595553761864
H         2.24721533637561    5.60749014540419   -0.27290168823361
H         3.08422331626602    5.98952899265210   -2.57289730498820
H         4.07610316423432    4.15237987816139   -3.86580265973617
H         4.25925628527180    1.87972426704595   -2.87679527575426
H         3.55428578347559   -2.93302450983961    1.82070628141080
H         1.52125130113183   -4.26844929491383    2.32135601063312
H        -0.68371297974830   -3.18493802594165    2.39555714898390
H        -0.91404852128331   -0.77372344094908    1.97287598351723
H         0.41692704292666    2.73960436004346    1.53042103715669
H        -0.19081077594384    1.54575532844635    2.69410857685414
H        -0.66903870164801    1.44950486958182    0.98120447310179

