143
CSD_code = GITPAD | q = 0 | S = 0 | Stoichiometry = C60H70N10S2Ti | MND = 6
Ti       -1.06418506890978    7.84386422795091    5.00987430870497
S        -0.71600304714926    8.24617022416974    7.49325376452533
S        -2.17566716088991    7.77827596735513    2.72561348806452
N         0.31843164149324    8.91404506914890    4.56026632705005
N         0.50053440359589   11.17007304065399    3.77677054764409
N         1.72662084572016   10.57879018376716    5.52455318303127
N        -0.43341225245294    6.16968550511989    4.94718322969317
N        -0.43312573555587    4.15762900245408    3.68531828955191
N        -0.02629495771287    3.99992945657903    5.85713176416313
N        -2.65148262396542    7.09793805918149    6.24915227691826
N        -2.98161201331440    7.41232923784245    8.58071427778988
N        -2.48099906642492    9.37848068144628    4.69816573652473
N        -4.08728073194478    9.61569657781491    2.95749867295477
C         0.78451969906852   10.07970410590730    4.61953658740960
C         1.25873602350279   12.25837603064111    4.16905556373164
H         1.23313754651762   13.18224497261969    3.62917634672945
C         2.00272787128014   11.89759923962753    5.22648135713679
H         2.73130103308397   12.45306745793735    5.78272346076393
C        -0.31586625531217    4.92557971687022    4.84382991458891
C        -0.22471614470577    2.82978823757987    3.99013057020934
H        -0.24244071763820    2.07265407106247    3.23245920914732
C         0.02338042051973    2.73215785035149    5.30787236905989
H         0.27521102261157    1.87513728572135    5.89725065863639
C        -2.25470971497770    7.50098522782186    7.43408697378469
C        -4.42420714044191    7.35288194943088    8.59017074256823
H        -4.82166855944706    7.46281632482763    7.58433600377599
H        -4.81065000233423    8.17081485167757    9.20427147280209
H        -4.77443321311173    6.40110509258915    9.00227089146799
C        -2.39457582758281    7.79721314266534    9.84077170001887
H        -1.32997757514131    7.57711325673012    9.82075984081238
H        -2.87416265917553    7.22564343679360   10.63597139123982
H        -2.52927522728883    8.86717951257203   10.03206610685005
C        -2.99960649330543    9.04466387600131    3.54079263298009
C        -4.61977495395703    9.09293140407891    1.72209794675989
H        -4.21790588143661    9.63437169673005    0.86205632687461
H        -5.70659150370646    9.19573184108567    1.73764127692292
H        -4.34774517229065    8.04393650273958    1.62631857566192
C        -4.56866681686193   10.93334029444621    3.29733761006546
H        -5.54925105133281   10.88194480780218    3.78284526047524
H        -4.66117955900309   11.52296984365410    2.38295369806263
H        -3.87391111364328   11.43391422191420    3.96561987886166
C        -0.36195757187459   11.19690369572179    2.66446032341816
C        -0.17307346522737   10.30036302043080    1.60569946933281
C        -1.00735131139389   10.37879083433103    0.50136229918215
H        -0.86997413039778    9.67216661320667   -0.30414146614232
C        -1.98931688750498   11.35077155221897    0.39669899776762
C        -2.14409244294901   12.24520006058763    1.44511497689839
H        -2.89569663243273   13.02061667326660    1.37571824000757
C        -1.36013660223358   12.17611356598140    2.58692980004112
C        -1.59913852215981   13.15965801273576    3.69737953544715
H        -1.40057959073365   12.71304802634615    4.66895914960971
H        -2.62992028972950   13.50906627061459    3.67733677456098
H        -0.95690947306436   14.03402149736654    3.58753241694648
C        -2.83125487936334   11.46288479170290   -0.84054136356552
H        -3.80277606470496   11.90066851691382   -0.61853769034093
H        -2.97697668257353   10.48811600757765   -1.30126269617778
H        -2.33542164968275   12.10573028294473   -1.56914775196684
C         0.92891059238293    9.29304065267208    1.63619719646010
H         1.84886488116032    9.73560912959546    2.01700233596917
H         1.10743515580068    8.89949841908821    0.63933848899390
H         0.64414794017170    8.47200641276474    2.30164724860001
C         2.44862511576849    9.86137978474239    6.50659899229689
C         3.43371254683765    8.95941888257916    6.09738137913298
C         4.21664216982417    8.34353468122695    7.06017771838513
H         4.99473053661295    7.65990722852969    6.74868420908969
C         4.02835973911506    8.59040814176851    8.41344437317114
C         3.03566740767296    9.47938145963882    8.79332775868827
H         2.87352511517365    9.67639432081438    9.84376871129023
C         2.24383346571387   10.13288925458039    7.85999760347367
C         1.17620370903652   11.07960122829598    8.31430809625525
H         0.21820731449127   10.55975185656920    8.28319475227264
H         1.11338544482093   11.95579268651681    7.67269856736903
H         1.36062338665474   11.40254076035313    9.33606159368989
C         3.63005021738733    8.67340508400507    4.64057511446726
H         2.71070982655191    8.25465181967342    4.22753319747150
H         4.44148613838655    7.96604758469845    4.49136502484248
H         3.85848577843544    9.59001424454799    4.09583485663243
C         4.86860027359514    7.88487828824490    9.43597088813392
H         5.90435110057670    7.82150884600635    9.10811521782462
H         4.50267136845557    6.86779481000187    9.58330855600907
H         4.83269697404099    8.39992774324095   10.39281153117059
C        -0.72271951457511    4.68069545054228    2.40747204832659
C         0.22968218485361    5.47155452907402    1.76217578604129
C        -0.07233166343298    5.98157141103983    0.50976363658501
H         0.66096633631274    6.58898350893780   -0.00094130985039
C        -1.29301226796893    5.73446006698222   -0.09869353697679
C        -2.21920951437739    4.94048451051026    0.56087971174761
H        -3.17722804613768    4.74727761890424    0.09868151027085
C        -1.95489506725969    4.40742026292149    1.81184230180490
C        -2.97490486003681    3.57308626859923    2.52645476020624
H        -2.69232352397458    2.52002476031027    2.52041662808559
H        -3.94657566487804    3.66816404777195    2.04906464359074
H        -3.06372380632960    3.89291165834847    3.56369174453949
C         1.54102293513339    5.75880144493726    2.42732243135372
H         2.21982871176240    6.26321222017138    1.74439630564820
H         2.00762759731013    4.83659987337031    2.77405791226932
H         1.36308336568460    6.39715390967414    3.29979054872006
C        -1.62513660630379    6.35158921586879   -1.42361267774111
H        -2.13285142890842    7.30218133118747   -1.25809988557055
H        -2.28845878043185    5.71040361692385   -1.99980103838198
H        -0.72483326302435    6.54193007077348   -2.00350004224016
C         0.11371307086281    4.33239719903783    7.21580643672674
C        -0.66913576239574    3.69966241755493    8.19054000718354
C        -0.56336010793273    4.12123443495760    9.50712826327398
H        -1.17562501125320    3.64136164977649   10.25907942886811
C         0.29113328958105    5.14860517262067    9.88196771742319
C         1.09350291579428    5.72376870608429    8.91079654248136
H         1.77970420654856    6.51395582971989    9.17911307489225
C         1.03519272215361    5.31916911525978    7.58501965282413
C         1.98067375081285    5.91656195280832    6.59427275848596
H         2.24168036738583    5.19759116753183    5.81918158586217
H         2.88420498933510    6.24651558450028    7.09902675998812
H         1.51172225885041    6.78528105056602    6.11342892924843
C        -1.60034815824723    2.56804033528140    7.86028855717132
H        -2.40490961518467    2.51752467579642    8.59113279842295
H        -1.06551777452226    1.61766897144625    7.89594570201599
H        -2.03239908570087    2.68052703062950    6.86884389023130
C         0.37863270092376    5.58957321165149   11.31303928166145
H         0.70256988162634    6.62556021464413   11.37617139790160
H         1.10249254112479    4.97485751115777   11.84983970542434
H        -0.58255364170895    5.48705173094610   11.81215764185900
C        -3.59646522327216    6.10992620060261    6.03631068282755
C        -3.70628938754127    4.99947504821686    6.88516716263218
H        -3.04994261688987    4.93496192749583    7.74105151234323
C        -4.61518756297618    3.99684862134507    6.61634801120702
H        -4.68605282497604    3.14821850070724    7.28266797575917
C        -5.43799201438703    4.06793361043725    5.50363843020774
H        -6.15148031937965    3.28305916296672    5.30134676950396
C        -5.32622595209823    5.15181059018427    4.64798056659384
H        -5.95421248146569    5.21401866961250    3.77036539830346
C        -4.41699028411092    6.15862634680857    4.90294558107885
H        -4.33198787002361    6.99134403336795    4.21863314525202
C        -3.10690587250824   10.03817814010678    5.73762030438794
C        -2.32570656749286   10.85583652560448    6.56576312839398
H        -1.27938772957870   10.98735048241361    6.31963236826344
C        -2.87151209735361   11.45513499878796    7.68140116877367
H        -2.25206351910056   12.08068844582935    8.30848814543198
C        -4.20454720171428   11.25265018634410    8.00587490752240
H        -4.63006655746225   11.72185576308041    8.88078520300204
C        -4.98304604496168   10.43194900224224    7.20668531913556
H        -6.01907340149046   10.25423576127481    7.46216049028928
C        -4.44821901059580    9.82634963999300    6.08653514579925
H        -5.05449838989071    9.15805837645362    5.48877231135294

