115
CSD_code = GITPOR | q = 0 | S = 0 | Stoichiometry = C46H60N8Ti | MND = 4
Ti        8.66799588000831   11.64509242379941    4.59457850205914
N         6.91901913435838   11.10689371628740    4.84399067286935
N         8.96760897513829   13.46477583278227    4.49763730119572
N         9.62973209623330   10.86891989560193    6.00334073402267
N         9.38055994249616   10.94315122895506    3.01036463631359
N         5.23529163850504    9.44514901851216    4.89951276899304
N         5.74670807709545   10.27144957272575    2.90307188738184
N         9.89030389534946   14.52208387876563    6.46503273664542
N        10.40191988224634   15.34638785718463    4.46802397722543
C         6.09005501435881   10.36554788070241    4.27200884271005
C         9.67068105058328   14.31758143360063    5.08285945568627
C         4.44065148261741    8.82424094831181    3.95552491796922
H         3.69611565295902    8.10696637456201    4.23710327270618
C         4.74903503937153    9.32601968719647    2.74824173165311
H         4.30931694542650    9.12666067070393    1.79240571487557
C         6.42944683837625   10.92790379528365    1.86486932778601
C         7.02399343790517   10.19798388626668    0.82919012121352
C         7.72301314695377   10.88225576630952   -0.15472464868634
H         8.18740725729922   10.31644992170537   -0.95172652468384
C         7.86165822569013   12.26034587075688   -0.12880356773511
C         7.23130975602373   12.96857322701427    0.88383864135319
H         7.30502367337441   14.04605892742407    0.89647661169177
C         6.49847699491971   12.32870757359879    1.86977819893830
C         5.73362612197200   13.12956066835980    2.87984286029746
H         4.77167169780160   12.66307659036083    3.09254127030442
H         5.56520824745786   14.14057589456353    2.51521467535301
H         6.30634137361721   13.16961730025703    3.81246779152271
C         6.92132968826239    8.70105580225794    0.74555765638288
H         6.88901113242286    8.24993999859131    1.73446753170794
H         7.77241959493007    8.29459942099772    0.20300374678373
H         6.01862081683959    8.40818755252004    0.20724006625923
C         8.67148054465318   12.98472744906464   -1.16131588416843
H         9.52157253066619   13.47140787874097   -0.68492946562659
H         8.07373792726279   13.75550739959290   -1.64606701556975
H         9.04005823774963   12.30129441165207   -1.92250266395923
C         5.28091468784950    9.12307261945915    6.26933074474517
C         5.75754655250326    7.87205446345632    6.67065421495892
C         5.76998602711048    7.56478774377732    8.02139073095625
H         6.13520799536351    6.59804030674477    8.33923820164928
C         5.33768713505295    8.47477312264203    8.97701728742397
C         4.89926058045074    9.72156091095343    8.55697823844881
H         4.57004946997658   10.44246881660787    9.29256778773841
C         4.86211558182865   10.06271086423406    7.21348849787680
C         4.39103701679069   11.40816608683300    6.76084379976602
H         4.03010407763765   11.99863081030832    7.59949987212768
H         3.58857815952652   11.30625075689073    6.03031770086658
H         5.22207959096653   11.92533538019602    6.27646931402348
C         6.27499876785637    6.89600681044776    5.65623433126537
H         6.85202688643513    6.11269270070789    6.14160105662000
H         6.91221981238713    7.40857379446593    4.93572988570741
H         5.45687729217166    6.42857945813637    5.10816806037329
C         5.33936035906345    8.10126449872563   10.42956208204949
H         4.52854805143978    7.40264138019250   10.63634954832573
H         5.20351585566110    8.97706614761742   11.05861131777432
H         6.27377048520605    7.61438313032776   10.70190036597899
C        10.72521938398693   15.61140120200424    6.63675309430252
H        10.98764027753120   15.96807923331873    7.61175620060306
C        11.03695200651404   16.10922223686273    5.42871394422856
H        11.62328402581850   16.96592024187920    5.16346839837894
C        10.55386712806406   15.49357561279690    3.07611281568466
C        11.79245216256934   15.23256674726741    2.48371670112851
C        11.92889882316660   15.41061240411743    1.11666761922821
H        12.88494099763097   15.21349145874047    0.65167475871939
C        10.86281446138843   15.82294703529361    0.32824907777940
C         9.63496334841382   16.04398619904349    0.93377549139496
H         8.79465837744929   16.35503622458538    0.32852336834273
C         9.46145806274335   15.88705778490065    2.30051259805801
C         8.13682729910955   16.12406411142855    2.95326878456763
H         8.23371107172085   16.84750856529154    3.76271585843945
H         7.78559855688247   15.18390067879329    3.38386522920193
H         7.40811561870913   16.49426110974439    2.23620770131760
C        11.05070311223134   16.03218693866151   -1.14499759401018
H        10.09341646854984   16.12193653222991   -1.65198417972321
H        11.60557584825791   15.20540500775932   -1.58484458594697
H        11.61904545983475   16.94554119277577   -1.32294374413145
C        12.94086255443759   14.73855631875817    3.31230727315608
H        13.37716632196005   15.54642343839644    3.89980481642637
H        13.71759811329437   14.32160756260472    2.67589498054319
H        12.59901999149949   13.96774221756873    4.00276549932317
C         9.44469765617900   13.65728862186364    7.47919095229490
C        10.35684060282858   13.05576015413542    8.35399195285848
C         9.87985567099157   12.17996506539728    9.31844529307858
H        10.58653258962202   11.71098772629560    9.99049913781212
C         8.53305498220489   11.87373762407800    9.42591484539710
C         7.64133038261585   12.50952808846653    8.57461556965597
H         6.58539157470852   12.30309534803438    8.66949342786948
C         8.07051224576746   13.41320773739534    7.61655109199288
C         7.07183449240314   14.16801713625160    6.79227279947316
H         7.39506582998538   15.19832333250295    6.64342742408656
H         6.09889017437441   14.16779624082602    7.27897203551878
H         6.98735927872335   13.69204847004536    5.80951302154967
C        11.83181658225032   13.33517150708979    8.28594002452767
H        12.39397882741246   12.48912966320260    8.67595262553693
H        12.08570031991129   14.20576583779605    8.89260474353597
H        12.15210554558107   13.52709195242115    7.26463631984754
C         8.03499009857765   10.87864056630777   10.43005244953324
H         7.61194301216169   10.01790220404128    9.91356376760614
H         7.25168204408189   11.31590334863668   11.04765200085841
H         8.83890123626582   10.53787069602896   11.07807699759745
C        11.06304338342836   10.84587447843147    5.89161331918006
H        11.53966034417236   10.87776660581087    6.88803243218046
H        11.40615690129120   11.71376710054850    5.31535708476274
H        11.43809404268874    9.92477935177911    5.39715887486029
C         9.15554255271598    9.73929619881415    6.75713514187212
H         9.39879378831423    8.77169731729670    6.26725573221099
H         8.07147359345090    9.80916008858157    6.88100624196979
H         9.61806940146037    9.71296821110291    7.76020938865591
C         9.57197120294493    9.51971326922196    2.94426458989340
H         9.47070781303136    9.15281937769189    1.90686431895401
H         8.82302945131050    9.01361346180825    3.56563208193011
H        10.58157414963265    9.20832905330573    3.28677140815255
C        10.35475244725502   11.63029166281248    2.20553352137441
H        11.39407621247864   11.45454631530132    2.55801935470850
H        10.15334744366346   12.70483984340786    2.22269916333348
H        10.31234830407078   11.28636674494524    1.15642786225636

