89
CSD_code = GITPEH | q = 0 | S = 0 | Stoichiometry = C35H47N3O3Ti | MND = 4
Ti       -0.28394574731877    9.51610045411623    3.82441754786772
O        -0.51547079937373    9.26028881571639    2.09356101877742
O         0.85411281597280   10.83364601108214    4.16119167984153
O         0.28513644084238    7.99580141155255    4.47800033503265
N        -1.92031218110565    9.96822486783517    4.42999273930258
N        -4.11468884141741    9.06442201514357    4.71388649965835
N        -3.93534386298469   11.03999757867129    3.71328766313683
C        -3.18133437041205   10.01217221940555    4.28536715478398
C        -5.37801472506217    9.50701408812121    4.38717462321091
H        -6.26435712160640    8.94991314127723    4.60102821225366
C        -5.26958479024519   10.70406347791815    3.78714494284637
H        -6.04960752914446   11.32837080311236    3.40838507077248
C        -3.78116705121724    7.80819319581362    5.37964788227644
C        -5.05098479351799    7.06595879088895    5.80297401389059
H        -5.65381260717645    7.67129376776010    6.47583806944427
H        -4.76351707832850    6.15882367435701    6.32799484204600
H        -5.64950693667461    6.78135653584808    4.94094732579046
C        -2.98573755714695    6.93270877801623    4.40568497798792
H        -3.59759349978135    6.67066367796745    3.54468306595279
H        -2.66382641899568    6.02038702146784    4.90064162484415
H        -2.10397050956788    7.48149882308623    4.06217987659333
C        -2.94279074338754    8.11434150419938    6.62531651432026
H        -2.06432277700525    8.68813844657317    6.33081655756625
H        -2.61855574569755    7.19152712426154    7.09887917341254
H        -3.52385348947215    8.69576248858486    7.33837251880686
C        -3.38682632297246   12.30208297723659    3.22265624260947
C        -4.50409313670876   13.21859394518726    2.71869834392428
H        -5.04829142845966   12.76191632537839    1.89533519203442
H        -4.05781401350534   14.14191775667486    2.35885757427279
H        -5.19992364708290   13.46837413388186    3.51613994695463
C        -2.41555340237899   12.01883138733929    2.07175368484016
H        -1.64514909741129   11.31781826737068    2.40492813448710
H        -1.93825024591227   12.94236448695350    1.75348681513257
H        -2.94767634032120   11.58558228381860    1.22655800791741
C        -2.65219614151973   12.98710608830895    4.37795889702854
H        -3.34501596287564   13.21597070321840    5.18534937927866
H        -2.18244326134484   13.90696730353030    4.04161771767209
H        -1.88090879750248   12.31559300945096    4.74932071278498
C        -0.37529434666206    8.13353052556641    1.39718017273214
C        -1.50590979975138    7.54329276734721    0.79881000663037
C        -1.35874512020518    6.37956228430324    0.06240062278658
H        -2.23160138025657    5.93023846912590   -0.39031914997317
C        -0.11607998693148    5.79397041651064   -0.10268744459845
H        -0.01474926858781    4.88723563559244   -0.67971595492187
C         0.99672404378485    6.38098475943142    0.47254228778547
H         1.97051172236307    5.93021935482812    0.33924812878345
C         0.89169575884246    7.54284683058085    1.22186415077401
C         2.11405012252660    8.17535086832712    1.82738676601160
H         2.85959535849177    7.41487787514677    2.05531387373809
H         1.86020480781488    8.71517383049584    2.74939697912977
H         2.55710736013279    8.88308880606899    1.12288148864838
C        -2.84499112929416    8.20905468628081    0.94736743011425
H        -2.89532991045020    8.74513222897433    1.89748880532098
H        -3.64923190783816    7.47805530672501    0.89357625845896
H        -2.99017204416316    8.93363934985938    0.14398460265576
C         0.86621480202866   12.15285146424445    3.98287969253431
C         0.67006512506274   13.02090619045414    5.07705731425350
C         0.68546658350690   14.39111590854257    4.87811348303287
H         0.53013313852998   15.04611367161660    5.72415685057888
C         0.89553024077814   14.92973188566969    3.62146030502089
H         0.90057803412264   16.00031017439832    3.48045377546084
C         1.11444919195707   14.08281268677726    2.55023550415941
H         1.29864126739874   14.49639042300876    1.56800682345162
C         1.11365303038542   12.70656332932300    2.70974602186923
C         1.41129723612337   11.80183548850054    1.54981868029264
H         1.42123676218751   12.36332973142850    0.61776904301791
H         0.66745192086204   11.00330702758114    1.47806394870102
H         2.39265255634693   11.34154181121264    1.68571580189438
C         0.44524277347113   12.44603692254402    6.44526696915517
H        -0.39351044096706   11.74499419334629    6.42773941975090
H         0.23214782943084   13.23528245924407    7.16231730470592
H         1.33081882382710   11.90195430168071    6.77538866793422
C         0.37968939596451    7.08924475795621    5.44304037687605
C         0.64163539482866    7.49659175218230    6.76637481164049
C         0.71182853876497    6.55269867690032    7.77569541117315
H         0.90787287677132    6.87666867494284    8.78834414882193
C         0.53933930226725    5.20690031299389    7.50168196242119
H         0.59140125574585    4.47853575880055    8.29700966125463
C         0.31420208265974    4.80168624088514    6.19864962521724
H         0.19825095107398    3.75010913460160    5.97537862350089
C         0.23612681909922    5.71707457422673    5.16060467312287
C         0.04100453010311    5.25119861264595    3.74685850465385
H        -0.42993584675072    6.02509766214631    3.14263142943632
H        -0.56881383566354    4.35066455923672    3.71536617402030
H         1.00620426960890    5.01962088319625    3.29376302130385
C         0.85913913423580    8.95658539754807    7.03000158451351
H         1.83546039000452    9.26334274783569    6.64136937799741
H         0.82291832569715    9.17232760263603    8.09577893602243
H         0.09461497218238    9.54513360684095    6.50606846792341

