67
CSD_code = GITSIL | q = 0 | S = 0 | Stoichiometry = C18H40N6NiS2 | MND = 6
Ni       -0.00003004336794   -0.00004824051959    0.00011212267119
S         0.59894184109112    3.77170568618495    2.21409216639828
N        -2.08064987022781    0.96834343301659    0.08879629401075
N         0.08744679992944    1.51546543646551   -1.77488684246466
N         0.61579497964374    1.22554411979934    1.14482288610706
C        -2.11891178277407    2.09333869545097   -0.84302302438765
C        -1.31846694415613    1.75139766070672   -2.10168805782057
C         0.57011223568236    2.32279080806221    1.56901812872464
C        -2.62985830957090    1.28971217712507    1.40537771946810
C        -4.13334367675970    1.58696481167592    1.40641760323670
C        -4.65336264097622    1.74117272700572    2.83011251229037
C         0.85337335436217    2.76154912554065   -1.71560067950030
C         2.34382832972224    2.50344967193398   -1.53514273310884
C         3.10824921652503    3.80221008672287   -1.31513952830346
H        -2.64011644933766    0.21304814817543   -0.31267114896041
H         0.49251219814132    0.93598017919827   -2.50982293719169
H        -1.67570629017740    2.95890491483608   -0.34565877291929
H        -3.14516843674433    2.34867549759405   -1.14037734379361
H        -1.42536936521938    2.56996561879803   -2.82961000579590
H        -1.73027313621200    0.83759901813211   -2.53842600931673
H        -2.08317648846733    2.14622327610241    1.80615834729417
H        -2.44322474306188    0.43633909981226    2.06101952518633
H        -4.33559828366467    2.50531950285801    0.85295619417794
H        -4.66375681426783    0.76831109572186    0.91136577869133
H        -5.71655894295589    1.96809194479573    2.82700912447925
H        -4.49994806454444    0.82466576887280    3.39572079427438
H        -4.13062945881977    2.54812474183209    3.33785194795412
H         0.69267040698030    3.35014991240761   -2.63393309446441
H         0.49594349103059    3.35218461679085   -0.87009703947042
H         2.73865927625250    1.98724563656762   -2.41483041861721
H         2.47189725415878    1.85560450631508   -0.66700475131667
H         2.97518674436851    4.47600378217333   -2.15903952691625
H         2.75053953118020    4.29996580382127   -0.41747480729651
H         4.17091566702251    3.60450694775046   -1.19804545862666
N         2.08058355287083   -0.96849416233572   -0.08876463434143
C         2.11901793308231   -2.09354693227496    0.84296775499891
C         1.31874824939998   -1.75165424447288    2.10175397814895
N        -0.08718505236484   -1.51560742007309    1.77511891755650
N        -0.61588722642259   -1.22546992525490   -1.14471968231219
C        -0.57003112388817   -2.32242917448147   -1.56940773032187
S        -0.59991236282854   -3.77036017660589   -2.21675127235670
C        -0.85321226992827   -2.76163531061343    1.71598046872734
C        -2.34363786712142   -2.50339636505035    1.53549201877924
C        -3.10821782964959   -3.80205259330288    1.31543729646959
H        -2.97536382156051   -4.47584287004496    2.15937338445211
H        -2.75049479798443   -4.29989252811401    0.41782372738428
H        -4.17083811773260   -3.60418224465546    1.19821689007464
H        -2.73843075171624   -1.98717623094074    2.41518563753810
H        -2.47158968826781   -1.85550414901242    0.66737165881625
H        -0.69255676831693   -3.35014286326964    2.63438377754703
H        -0.49582063024535   -3.35239603138012    0.87054212461405
H        -0.49211521799011   -0.93606983470604    2.51008955360480
H         1.42567715449098   -2.57027623091271    2.82961258583562
H         1.73068032542554   -0.83791952053412    2.53850556376488
H         1.67576043994998   -2.95909893664861    0.34562231620114
H         3.14532032939098   -2.34888935504248    1.14016206469542
C         2.62975279623245   -1.28966907647053   -1.40540302466950
C         4.13320736769497   -1.58705463354457   -1.40653197633334
C         4.65310469438197   -1.74128317601287   -2.83026697130598
H         5.71630113105090   -1.96820130466589   -2.82724947427707
H         4.49963470395542   -0.82478406566504   -3.39587220028395
H         4.13032384938527   -2.54824227307619   -3.33794804750497
H         4.33541472274217   -2.50544056319165   -0.85310563135689
H         4.66372001961312   -0.76845815766469   -0.91149403993040
H         2.08298996454928   -2.14604653218691   -1.80636261935081
H         2.44318829674870   -0.43614340771613   -2.06086171124945
H         2.63994641026842   -0.21314592180453    0.31274033168921

