73
CSD_code = GITSEJ | q = 0 | S = 0 | Stoichiometry = C30H36N4O2Ti | MND = 6
Ti        1.37307001078988    2.35348213381265    8.98251379539135
O         0.05276576489804    2.18024065339483    7.90198240471141
N         1.75088810926057    0.37942905565597    9.15359044170331
C         2.69482790002819    0.09773897879134   10.11188769505400
N         2.72845373897440    2.35379501328326   10.71787504363458
O         2.69144187742738    2.62417187180437    7.91864396087105
C         3.02466118293623   -1.26662767607853   10.05770719058812
H         3.73180635886477   -1.77751647579608   10.68488857105203
N         0.98883333485864    4.30439195787731    9.32264166952191
C         2.26221138000041   -1.80780916248637    9.03234621718879
H         2.25448860192607   -2.82939623874625    8.70235372488261
N         0.03424306278480    2.21013318745936   10.73698508863714
C         1.50209849444502   -0.75909048043458    8.50664687394816
H         0.78303945786730   -0.79700540281096    7.70374311177615
C         3.17811980153067    1.16241150961091   10.90278640372890
H         3.93707863429215    0.94922595376910   11.67114421102433
C         3.24057377514783    3.43735120159394   11.51272845152251
H         4.00067863365425    3.07660136140950   12.23272321871928
H         2.41206745444099    3.88074398594174   12.08207289775130
C         3.85600787457609    4.49583509097783   10.62852578091890
C         4.76336220711812    4.12256916442220    9.64388084051717
H         5.01108024001851    3.07719947856620    9.52033130761257
C         5.34713683074514    5.07954421664482    8.83353335215713
H         6.05716785224494    4.78360333800313    8.07378053084844
C         5.03310740337251    6.41821027580863    9.00000620486467
H         5.48805546435671    7.16494345247936    8.36538433821276
C         4.13602542922643    6.79599819516713    9.98365420390175
H         3.88687844601534    7.83836742222839   10.11762870996562
C         3.54912676316931    5.83916705180115   10.79352810000524
H         2.84421261892941    6.14015009066503   11.55568851669595
C         0.04970594913150    4.50597619456187   10.30537808011257
C        -0.28682898742014    5.86872002442062   10.35961720423850
H        -0.99204382339517    6.32585644745208   11.02903648734204
C         0.46738851682427    6.49199100927800    9.37538503147461
H         0.46828898053220    7.53636306370842    9.12636384697646
C         1.22931524580802    5.49116418614606    8.76536714518604
H         1.94356165409794    5.59457028232813    7.96387805689281
C        -0.41613657459931    3.38150932493791   11.02067165488923
H        -1.15921013032790    3.53234091102222   11.81864994639558
C        -0.43205436220835    1.07238398522112   11.48303436204916
H        -1.21770122311610    1.36761740133587   12.20566743241935
H         0.41163613455724    0.65539131006283   12.05118554133228
C        -0.97894872191351    0.00708144668025   10.56396944624130
C        -0.65601230464396   -1.33043859164793   10.74608967021719
H         0.01637958626611   -1.61747994737324   11.54229897653017
C        -1.18261460742175   -2.29856456429069    9.90921700243693
H        -0.92074137167293   -3.33589025961293   10.05689523416792
C        -2.03606577565102   -1.93806921995526    8.88132113117323
H        -2.44375511532133   -2.69344628201607    8.22530682741429
C        -2.36618554787909   -0.60567900508024    8.69761503832473
H        -3.04162866578286   -0.32402108940851    7.90192139275692
C        -1.84319088157147    0.36308321713945    9.53518439046571
H        -2.10248260410243    1.40382161697843    9.39799450356555
C        -0.46912545252690    2.72008339878911    6.74533249074723
H         0.28440127494789    3.39892567791727    6.28788443871834
C        -0.80018872785586    1.60396258852157    5.74098113819813
H         0.10086949345644    1.03485859672912    5.51773937270940
H        -1.19835799404647    2.02058712940095    4.81903142974172
H        -1.53332036623782    0.93036141132214    6.17984935785953
C        -1.72621758340082    3.54932576030889    7.05982022029232
H        -2.51296450326388    2.89834085777164    7.43665145667310
H        -2.08335499005891    4.05513172321146    6.16592699441695
H        -1.48742642622817    4.29213801880006    7.82011483677095
C         3.17066788165373    2.20483941270945    6.69544753756569
H         2.39125449437218    1.59380353170461    6.18839646509015
C         4.41729691948604    1.32345787474749    6.88329915099756
H         5.22618476568198    1.91587755406608    7.30626848137006
H         4.74045632509163    0.91024582148049    5.93077964463548
H         4.18141063748312    0.50780017142386    7.56600490951250
C         3.49853985916547    3.41862675634378    5.81050353758786
H         2.60093093569937    4.01801398804592    5.66679126639446
H         3.87471649188355    3.09928549169370    4.84165554871183
H         4.24764289060929    4.03289356828220    6.30607046197883

