80
CSD_code = GITXOZ | q = 0 | S = 0 | Stoichiometry = C39H32N8Pd | MND = 4
C        12.24836720972879   -0.62174612935483    5.51662613053685
C        10.86761833831838   -0.62940499296132    5.75818489237437
C        10.34522333395065   -1.69245534282090    6.47760742137918
H         9.28095426599833   -1.74460659296690    6.64827373818992
C        11.16074444989738   -2.68581689941441    7.00080204257621
C        12.53828677749763   -2.53264433423252    6.92316206887019
H        13.17711046728059   -3.23274311692333    7.43951485655870
C        13.10442175117755   -1.49054615992585    6.20925966160938
C        10.56699769065516   -3.84132355538662    7.74545535366241
H        10.46764460824842   -3.58664368552378    8.80058998506089
H        11.20409526194593   -4.71949519480335    7.67046009313797
H         9.57811809950361   -4.08263793638246    7.36283472679850
C        14.57764682139697   -1.11561715152319    6.33072522352474
H        14.55925216911099   -0.13978095768095    6.84531853862155
C        15.28319135477490   -0.88846829583356    5.01728240440661
C        15.25390262332840   -1.83744433210804    4.00121511215021
H        14.69711533915237   -2.75339955373181    4.14602319696289
C        15.91482329632328   -1.60966825050430    2.80636306003625
H        15.88798912285960   -2.35745797983663    2.02683226266733
C        16.60888282044288   -0.42752288307078    2.60808008333791
H        17.12247264485591   -0.25239482337922    1.67404019556928
C        16.64299152146962    0.52771927868922    3.61062940553600
H        17.19186847055451    1.44745063741291    3.46538238434832
C        15.98059094331682    0.30417329946873    4.81089095573684
H        16.06040158423798    1.03922229135959    5.61498835766143
C        15.33317168317268   -2.04681463769312    7.25724577475578
C        16.22663280817280   -3.00918753957291    6.81142198742281
H        16.42669840945523   -3.12128492308612    5.75650970345086
C        16.88457925219444   -3.82794264657293    7.71502059372475
H        17.58005497382619   -4.57084055635137    7.35207756198920
C        16.65696130911263   -3.69643424590126    9.07270133153160
H        17.17140513515029   -4.33633125824474    9.77425267479321
C        15.76944454392653   -2.73436246090531    9.52686692579921
H        15.58868558763357   -2.62008182226789   10.58536984136842
C        15.11686121420244   -1.91396014299791    8.62657068362070
H        14.42303045137586   -1.16569979596229    8.98272671533803
C        10.05148532838855    0.62848375975174    5.46989164616387
H        10.43763507347521    1.34464583498413    6.21251874717327
C        10.29155604943856    1.25154102024980    4.11772081172365
C        10.73902807248620    2.57427349848181    4.04675198383503
H        10.84171156176345    3.16576822190260    4.95717910898515
C        10.97258554399760    3.17360736195569    2.81352958576388
H        11.30388686787998    4.20242903769060    2.77235906638805
C        10.75906519203122    2.46092371651258    1.64454640224762
H        10.93657296095137    2.92470669209025    0.68511976357282
C        10.31918689749751    1.14878658495797    1.70893173994911
H        10.15513744431638    0.58984240324589    0.79869481041868
C        10.09478340495079    0.54616240668221    2.93515462029249
H         9.78537716123285   -0.48930095201998    2.97693355876482
C         8.58228305311160    0.46837904546359    5.80750334560469
C         8.22285195737968    0.51647003453224    7.15273593380580
H         8.99058156363655    0.66074048857859    7.89973415928226
C         6.90382602929367    0.37306876350011    7.53878166114419
H         6.64449490167263    0.40955646184055    8.58648625050562
C         5.91710772504914    0.18965444543234    6.58384251359050
H         4.88477828684110    0.08068066951605    6.88159853454816
C         6.26292817804073    0.15580449302143    5.24550460049035
H         5.49954735005506    0.02343333908219    4.49247707489036
C         7.58630945130233    0.29383199413210    4.85858119385953
H         7.82772840403149    0.27945093242502    3.80710160161187
C        12.87363554874185   -0.20682187763192    3.34887508475119
H        12.50518254880210   -1.19924980648588    3.09953846558305
C        13.44764601770916    0.61764017555188    2.33538382621837
C        13.57469434170828    0.23363164391751    0.99567320940648
H        13.22367350858721   -0.73882121782706    0.68901674079135
C        14.14775319505672    1.10988901493510    0.10188069075199
H        14.26047590231441    0.84289866522191   -0.93774140812480
C        14.58153841988175    2.35115765916085    0.56476837458448
H        15.03585236361274    3.06267428124094   -0.10553388681468
C        14.42306234450112    2.66376720300928    1.90167801462456
H        14.74657092708462    3.61744373101813    2.30146901487150
N        12.80327929898546    0.25227023584655    4.55816971472671
N        13.87183806497068    1.82401493247466    2.77067734329656
N        13.21658970395993    2.21503659838384    6.68689984981957
N        12.67000499174272    1.54180946793399    7.47478420018015
N        12.17405865588752    0.97996628798203    8.33018286252815
N        14.31349368341379    3.84476060884118    4.74805380704328
N        14.38818671165512    4.65293134511461    5.59657892757155
N        14.53319118424625    5.53518975052275    6.29408196704171
Pd       13.53818779432575    2.03986373842203    4.73647854209039

