78
CSD_code = GITZUG | q = 1 | S = 0 | Stoichiometry = C37H33IrN7(1+) | MND = 6
Ir        8.87713543814704    4.60086579258969   10.61275606031182
N        10.61835313369858    5.90650659644220   10.25556640189011
N         9.57306367899308    4.10868481610124    8.50591580902359
N         6.86571567780113    3.31307060730451    8.11599926675459
C        10.97678359582621    6.90201824169976   11.05909178621904
H        10.60184820140217    6.85433775254581   12.07232459367657
C        11.79127494464628    7.94381196434176   10.65319262450974
H        12.05662500093520    8.72580189111937   11.34546821476901
C        12.24470440093483    7.95970556453639    9.34205666338413
H        12.86079705625328    8.76731929896273    8.97908084002778
C        11.89517524598701    6.91345257651661    8.50780917997586
H        12.22206376418293    6.90257876761240    7.48057799844417
C        11.09020661251279    5.88939413982384    9.00319002060594
C        10.71881900519278    4.72417053644578    8.18944441022370
C        11.55358763247531    4.26588528396200    7.17237289041597
H        12.48322337942339    4.76829549348325    6.96016015455833
C        11.19159970502129    3.13301964139989    6.46529116061815
H        11.82681369479997    2.74634855242406    5.68371181726899
C         9.99354841871702    2.51602064640022    6.77554335968257
H         9.65483202936526    1.65181827108048    6.22734516159345
C         9.20309183777810    3.04439108778783    7.79454716913872
C         7.87644766333147    2.45325995636647    8.05166644997456
C         7.70103177397934    1.07575493970542    8.15277046888414
H         8.54982137857409    0.40992267309827    8.10887791002753
C         6.41639072604486    0.59009837262360    8.33029840355491
H         6.23929285694486   -0.47189734079513    8.41531635375308
C         5.36134053298074    1.48688844590903    8.37966396442565
H         4.34642118959763    1.14590531905802    8.50063341857696
C         5.64356747646128    2.84021344373417    8.26755104959885
H         4.85761613951053    3.58170727691452    8.29144359588406
C         8.61247194417350    5.18483404034594   12.52774031602660
C         7.95814739630827    6.42140316918021   12.67884286100386
C         7.79241920338947    7.00019629615625   13.92953230738622
H         7.30536911971843    7.95042330058484   14.05081932730199
C         8.26946924812054    6.34302230886118   15.05115390950004
H         8.13854402767523    6.79107412577450   16.02363259318671
C         8.90796565791247    5.12366171299038   14.92559087779593
H         9.27688157657007    4.61319337190454   15.80184924287261
C         9.07626599948057    4.55398055213929   13.67184818204105
H         9.57885559437334    3.60087856420634   13.59639946163330
N         7.84713380224462    6.31769181507317   10.34517075265393
N         7.52413310184887    6.99900482735026   11.47107113234852
C         6.25364359908976    9.10375150183348   12.10355604029507
H         5.58967172603893    8.63065722854315   12.82548308152852
H         5.68189680905447    9.83684887646005   11.54040740161570
H         7.04376172696952    9.62829032546882   12.63967900213264
C         6.81078920204955    8.10716246311581   11.15620685248470
C         6.68895309795114    8.11878155294217    9.77993296506096
H         6.18063186010169    8.85489196372242    9.19215728696759
C         7.34656197533509    6.97979011491758    9.30734221028148
C         7.48292464332022    6.51712649231722    7.90476114286712
H         8.49303239460803    6.69740159565151    7.53671516006080
H         6.78715748949957    7.05836847668885    7.26998583214987
H         7.27678603540513    5.44815599168635    7.84815996370370
C         7.22915428005223    3.49228901181803   11.01665511963994
C         7.48510202359141    2.13760878978110   11.29249300245788
C         6.47381830384803    1.26476316294050   11.66982794146966
H         6.67731908711757    0.23796260581259   11.91315559787243
C         5.17469735834083    1.73052982553438   11.76252213348813
H         4.38803446191164    1.05573152797274   12.06191451955512
C         4.89266867928296    3.05486836513330   11.48357519873528
H         3.87895034204049    3.41811327978517   11.55819905250958
C         5.91177591195669    3.92174731653112   11.12395320365375
H         5.66167975682347    4.95189723807441   10.91904064829745
N         9.71702321384655    2.78654575877784   11.01194786283526
N         8.83957850717553    1.76985251711338   11.18361871086538
C         8.89007855098838   -0.76105075753310   11.37174523214635
H         8.49803866262511   -0.91284749405590   12.37693165757326
H         9.65983345903018   -1.50862787201845   11.19656617513310
H         8.08608201496311   -0.91111890545498   10.65353213767578
C         9.49489512354404    0.58653894429637   11.23046621629782
C        10.84053590114190    0.87529241009369   11.10108045108281
H        11.64807406874855    0.17269015777538   11.10623426607008
C        10.93989371435620    2.26212448559826   10.97535826364034
C        12.18107122027664    3.06947163576061   10.85177728882377
H        12.47706683263291    3.17011722706357    9.80703492411377
H        12.99148067412720    2.57750643225382   11.38368570844255
H        12.02888842879555    4.06095305988407   11.26977958697868

