39
CSD_code = GIVDAR | q = 0 | S = 0 | Stoichiometry = C14H18O6Pd | MND = 4
Pd        0.00014979343895    0.00009657070308    0.00009187997564
C         2.80709875678297   -0.33514873258654   -3.23520090607279
C         1.66406202508081    0.21287522015748   -2.41455004294549
C         1.00939495647318    1.38073456744984   -2.86510731618579
C        -0.11961128021329    1.92222703112031   -2.22108352295897
C        -0.86159141207252    3.06238443606427   -2.88521469410812
C         1.51029380664418    2.02835415425630   -4.11693911223665
C         2.03329652253413    3.43934290203176   -3.95640303346918
O         1.40236974212054   -0.42610408920873   -1.35869709162392
O        -0.63008489311134    1.51793003437944   -1.13846648699339
O         1.54982521411212    1.45932014335577   -5.18213173149505
H         2.45944415035999   -0.58550041396029   -4.23426766619272
H         3.59793836249365    0.40589291711854   -3.32996785743024
H         3.19604822775194   -1.22403117705336   -2.74565028861239
H        -0.83716169500808    2.97320545140764   -3.96664349263055
H        -1.89109731620176    3.05074785925642   -2.53575655866552
H        -0.42051775123808    4.01371932403154   -2.59636699897755
H         1.94328884055225    3.79633564564249   -2.93614786512275
H         1.51864013481388    4.11088913704578   -4.64064618354923
H         3.08369742906365    3.43635739189533   -4.24542735273019
C        -2.80715484349186    0.33499496070601    3.23507763688823
C        -1.66363718020757   -0.21265358155085    2.41482740015693
C        -1.00917902654415   -1.38072268672671    2.86520084617693
C         0.11959904836161   -1.92241681681557    2.22097938636606
C         0.86168967033906   -3.06237596052121    2.88528755598665
C        -1.51023803566238   -2.02836363812125    4.11698740944937
C        -2.03332241583838   -3.43930561710367    3.95640716018407
O        -1.40210502727801    0.42615348360727    1.35883322383510
O         0.63021902744258   -1.51790336617488    1.13849931084969
O        -1.55012166730165   -1.45915140211563    5.18211230555800
H        -2.45970564945326    0.58551339081357    4.23413534503206
H        -3.59787854747523   -0.40614007348938    3.32986522987499
H        -3.19621807876534    1.22377016275134    2.74547884994782
H         0.83734985802898   -2.97310665171049    3.96674484729941
H         1.89116864262503   -3.05083355319536    2.53570583643478
H         0.42047198611242   -4.01367528632474    2.59651780827908
H        -1.94267504558626   -3.79695880994352    2.93677605315080
H        -1.52031143230060   -4.11055913704335    4.64106493330195
H        -3.08343489738244   -3.43589379014908    4.24407518325329

