46
CSD_code = GIVHEZ | q = 0 | S = 0 | Stoichiometry = C17H17BMoN6O4 | MND = 8
B         3.40570867369794   -1.40091387354625   17.25479991690074
H         4.10850207556108   -2.15192393917237   17.83553333655707
C         1.79416795528022    1.48367623822925   18.65709707071578
H         1.22707554086600    2.38147713831780   18.48757548050615
C         2.38177674641334    1.03257053796874   19.83735428385152
H         2.36021031228754    1.50223227381007   20.79865264743762
C         3.00221656941233   -0.14871633746661   19.48776837410319
H         3.58141939949064   -0.83224097723784   20.07486504335295
C         0.75541751800022   -2.38057888491779   15.03121690144743
H         0.00584939696215   -2.09886584513723   14.31507752132671
C         1.16464907577260   -3.66367385428250   15.38957350957201
H         0.78832695152050   -4.59647775962618   15.02434427806622
C         2.16412689083132   -3.45660472036329   16.31498437619583
H         2.76736754396748   -4.15630687669317   16.85625020735206
C         4.45316395952227    0.91721930336067   14.68880504339105
H         4.17700102593782    1.70052612197010   14.00669561670751
C         5.70202035634296    0.34540201177522   14.90967461798737
H         6.62710579012608    0.58575943305640   14.42856997908569
C         5.48091156678423   -0.60132964371918   15.89100350780260
H         6.16059238012710   -1.27607177401543   16.37103404747818
C         1.81132161511009    2.59960810008891   15.50628497276524
C         1.53090895108725    0.79226096402444   13.68507423291594
C        -0.48415851722573    0.82046980227078   14.28906049043337
H        -0.73648137606064    0.13757066271239   13.47301045598337
C        -0.74262411691220    0.35496961974602   15.61866024303579
H        -1.18578061172375   -0.61777293792968   15.81677282214046
C        -0.53911434533385    1.30795070549012   16.62468011313988
H        -0.73024807899339    1.03954895868647   17.66286252111735
C        -0.59432086935961    2.72227084041792   16.30302259062501
C        -1.17737424047874    3.02077805569016   14.91208131152827
H        -2.27204118657098    2.93930190216100   15.06817332825129
C        -0.84822229951269    4.42534293522371   14.42423158597327
H         0.19109528658715    4.47307432396394   14.11327597864532
H        -1.00609457986607    5.12560152370058   15.23955883088425
H        -1.47972201519001    4.68854117889569   13.58104585207480
Mo        1.46394778015591    0.69538158763268   15.61890155366482
N         2.03494975664383    0.61980595243874   17.67884364617506
N         2.77419056520491   -0.36871240094115   18.18508444237472
N         1.45243521725130   -1.47382676728982   15.70280131494312
N         2.31326442566529   -2.13345623768683   16.47843597037232
N         3.55261118617628    0.34797078221831   15.48388730592555
N         4.18305339031361   -0.57650725610913   16.21066951319287
O         2.17133107869876    3.67275991634415   15.33053343379216
O         1.70732446382977    0.93998513360037   12.55457491497325
O        -0.81969704263763    2.08824246520461   13.90036643352051
O        -0.40466416576065    3.61468161713463   17.11393038171256

