79
CSD_code = GIVJUS | q = 0 | S = 0 | Stoichiometry = C33H41MnO2P2 | MND = 8
C         8.34101761687360    4.64680385333499    0.06704873866052
C        10.36737871688921    3.36903875335010   -0.58242438619690
C         7.91741347709640    4.71463460921893   -3.15724174881525
H         7.36356548711951    5.30941811823155   -2.41586560440575
C         7.24553135589635    4.82477754978932   -4.51597654675697
H         7.79484912135501    4.28310957525192   -5.28102007695651
H         7.18373623134759    5.87119269446518   -4.81024761931893
H         6.23096017409803    4.42686865734478   -4.46794879984896
C         7.76326182299658    2.38818821411231    1.61660090498988
H         7.32251881015735    2.99916971042295    2.39380077196147
C         7.07066846561763    1.78369676112802    0.55161766038570
H         6.00129923690375    1.82556300949681    0.38777770923415
C         7.97136060757711    0.92314215074885   -0.12131797471907
H         7.70438023387346    0.20908716418860   -0.89170151488997
C         9.22020614778459    1.00553075735972    0.51978517985159
H        10.07439009321678    0.36909431477788    0.32675474057057
C         9.10099763328229    1.92458365039535    1.59163405185567
H         9.84331847502921    2.09641194889697    2.36117907847079
C         6.15047120930105    2.58792159743386   -2.42654149775187
C         5.72404112405249    1.31137279305266   -2.78113409744372
H         6.44319472924769    0.57255021893768   -3.10833099856530
C         4.38266177004614    0.97835365760715   -2.71419357135155
H         4.06293283063487   -0.01539902219430   -2.99361608345776
C         3.45351513648579    1.90956716416867   -2.28190424093159
H         2.40745476820190    1.64621340719493   -2.22884232562846
C         3.87299095222037    3.17440946444802   -1.90009959013248
H         3.15398900836274    3.89748267814352   -1.54299573019182
C         5.21270096848133    3.50828513340367   -1.96130112638417
H         5.54322104624728    4.48248879453438   -1.62616311051036
O         8.10580140669177    5.75534288461695    0.31167722486623
O        11.49328521144340    3.60120098550445   -0.71669557251373
C         8.65231493942209    1.94197102633412   -3.60785363928056
C        10.53303774790615    0.59258170781485   -4.27696170868842
H        11.50383569895292    0.17128053266105   -4.06063015964876
C         9.91891575710377    0.33600873611792   -5.49211027285555
H        10.41007287774725   -0.28387649097893   -6.22783993780340
C         8.66975579274107    0.87240452962289   -5.76211918050668
H         8.18722886395786    0.66753380590905   -6.70709434158427
C         8.03299589203187    1.66809800989132   -4.82653413749241
H         7.05205568096690    2.06733580136846   -5.04007254739937
C         9.49800166053389    7.16973471576573   -3.28331353233416
H         9.21822637095270    7.35658140667640   -4.32556216119290
C         8.45730388386217    7.80072647733430   -2.35951201078232
H         8.68958312581022    7.53708718266177   -1.32561615730608
H         7.46053536806962    7.41941700982209   -2.58983353895135
C         8.44413295816725    9.32024588445395   -2.51481145302953
H         8.15142323470690    9.57736486506010   -3.53673888289050
H         7.70258617070439    9.74829530409433   -1.83723984012894
C         9.81871032704465    9.90980930931443   -2.22276569536341
H        10.09180912365781    9.69384913647877   -1.18812984338690
H         9.79523324477421   10.99464529590912   -2.34717984361708
C        10.85503431113916    9.29578279228007   -3.15630000015748
H        11.84494861927528    9.70169683868914   -2.93805081649917
H        10.60912496708899    9.55000672620899   -4.19080752138069
C        10.87244495824695    7.77977011789066   -2.99443427425545
H        11.62347860137267    7.34585947952475   -3.65747606460785
H        11.15264596536115    7.52327817679827   -1.96951652995855
C        10.48341595953851    4.67691263127044   -4.51931422195236
H         9.95272601341211    3.73768067746413   -4.71581044737173
C        10.43541208745562    5.52818260930256   -5.78620153759142
H        11.01302550546650    6.44326980172572   -5.64696958080991
H         9.41094678547772    5.80724767966801   -6.03565714833499
C        11.03936998854359    4.73741859911114   -6.94663917657123
H        10.45366360473306    3.82864509199432   -7.11012487130458
H        10.99512296133226    5.33399318459058   -7.86094527491140
C        12.48499165039850    4.35819801621685   -6.64252984787540
H        13.08059890115098    5.26730062692469   -6.53132145833085
H        12.90208162309460    3.78515097817298   -7.47363156831562
C        12.55970588599333    3.54310934313179   -5.35517014377551
H        13.59990856223278    3.30387723429402   -5.12546741187987
H        12.01967313841829    2.60254635777571   -5.49122727308203
C        11.93592071004019    4.31546346793330   -4.19710185201371
H        12.51166579711623    5.22439335717888   -4.01176765976130
H        11.96481094864799    3.71690494004752   -3.28493398848523
C         9.90188464432585    1.39137087643319   -3.34067062958294
H        10.37249556791545    1.61183509400887   -2.39054930315819
Mn        8.68951156469011    2.94829495183908   -0.24027545148482
P         7.91910175270919    3.03503627124257   -2.34317674708811
P         9.68031633714684    5.33297858259132   -2.95002415930855

