57
CSD_code = GIVMEF | q = 0 | S = 0 | Stoichiometry = C32H18N6Ni | MND = 4
C         2.93371646956165    1.19119910491088    6.06455481589867
H         3.22465181669829    1.96432409824692    5.37479475572573
C         3.66197571564469    0.76937071844209    7.18944301301599
H         4.59266519916661    1.18230117379835    7.52608210763503
C         2.95462806745547   -0.26907309700139    7.73914217545485
H         3.21893473014291   -0.85984940861455    8.59434996966099
C         1.80609509360538   -0.46696967746801    6.92163168224361
C         0.93425310417846   -1.56239032772551    7.00010438842687
C         0.01103443108256   -1.83600054004334    5.98273871979313
C        -0.91077253550992   -2.90986007050161    5.81112386586533
H        -1.07333656502423   -3.71171336742128    6.50518531955094
C        -1.55162674984190   -2.71202328362784    4.61193921786304
H        -2.30693282318214   -3.32880567465204    4.16545099220561
C        -1.03341458491828   -1.51294470334254    4.07242933058096
C         1.04695586951190   -2.48607974807171    8.13604008002318
C         0.93108110016105   -2.01056271300110    9.44227669377055
H         0.75028905158149   -0.95905753861077    9.60787975496834
C         1.02423404210194   -2.87383165241694   10.51397802396344
H         0.92800011358479   -2.50731953532785   11.52529798697359
C         1.24705529135431   -4.23361601718682   10.29114847015950
C         1.37183687805420   -4.71622642660329    8.98753388943653
H         1.55114455887806   -5.76841863513122    8.82266536550855
C         1.26736150252623   -3.84648464330933    7.92197594980420
H         1.38137242111428   -4.21232758884422    6.91268636617310
C         1.34983617612514   -5.12245883775500   11.38577321094380
C        -1.23582168211664   -0.67386914280038    2.92918420742782
C        -1.87926230766493   -0.73410744644302    1.67221332509969
H        -2.47714686391175   -1.54709083426351    1.30909645954854
C        -1.56986383893445    0.43414005363208    1.01854633101271
H        -1.86853266725008    0.71700282680148    0.02769309386024
C        -0.75618131277346    1.20961317204999    1.89547146242011
C        -0.18150141724466    2.47874985565599    1.74808052187845
C         0.52172562677632    3.08790915401337    2.79746996812596
C         0.87032315813234    4.46647780254187    2.86280809589946
H         0.76138180645131    5.17410883065595    2.06421563350161
C         1.30738982870671    4.70750973592465    4.14046491655521
H         1.63127926260903    5.63993602993471    4.55965623803695
C         1.23450814469428    3.48054089692952    4.82087621825408
H         1.46553027938661    3.31539398286060    5.85901734295284
C        -0.36634532224070    3.21287966715818    0.49020025752292
C        -1.64173184410528    3.43557000645949   -0.02783092542210
H        -2.50509259095096    3.09602255984169    0.52423968592286
C        -1.80619530386221    4.11069178165152   -1.21965264364123
H        -2.79394121109687    4.28933071186267   -1.61829169800032
C        -0.68769871973642    4.56791055567220   -1.91808468195761
C         0.59228140977531    4.35169521679506   -1.40498482307555
H         1.45356976464958    4.70915874463372   -1.94974702604027
C         0.74588214996004    3.68424797817261   -0.20798443570409
H         1.73370197455397    3.50500982563370    0.18933732860456
C        -0.85058813201668    5.25139416679952   -3.14492859252755
N         1.81571387078238    0.48088107217106    5.90859929324034
N        -0.10466695690802   -1.00805661878988    4.90724519654084
N         1.43353005693763   -5.84408877639265   12.27249603379913
N        -0.57628878315768    0.49498382639728    3.04138926603463
N         0.79278832072618    2.50469445435350    4.02634147755769
N        -0.98184970758745    5.80463434538647   -4.14028575520852
Ni        0.53266463338476    0.67474395597194    4.50442208212968

