82
CSD_code = GIVNOP | q = 0 | S = 0 | Stoichiometry = C33H39N2O7V | MND = 6
V         4.81361453143816    5.84560908652607    4.60178005204992
O         6.58112875320582    5.50428683462577    4.81714054917082
O         8.29102350009661    4.08392364892272    4.88868695579783
O        -0.43009490765942    1.66273796227925    6.21257242658764
O         3.14529710252935    5.54678501831680    4.83521901067724
O         4.79244557780457    6.35998683778411    3.16121524952751
O         4.90285260359425    7.29567078202405    5.48382052764868
O         4.85387209727098    5.11361435492391    6.88776250186925
N         4.89733037259882    3.83554482160589    4.29999574390131
N         4.90424380859851    6.16770475806495    8.87577663236637
H         4.92355342752828    7.05336592165113    9.35673625630782
C         7.15305689773627    4.38828047034789    4.60538259052026
C         6.19481527752293    3.38213222030028    3.91609288280004
H         6.39025083277641    2.36727523895005    4.29764771996743
C         6.45076230177245    3.38365501681611    2.37177165837856
C         7.00095738233613    4.72561773210038    1.88282528206931
H         7.08294621719835    4.71115857998844    0.79757381434658
H         7.98943505332134    4.91196922236236    2.29808561309238
H         6.33469618477049    5.54270627785243    2.16808824051625
C         7.48444581967982    2.29043865305838    2.08420728292157
H         7.77519876771223    2.31841586374714    1.03675802398555
H         7.08347279875548    1.30171738867209    2.30161462159837
H         8.37069960017059    2.44970429614722    2.69430010374911
C         5.13811001880279    3.08602978085776    1.64108081948069
H         5.32811008283464    2.98794044388670    0.57464256151219
H         4.43287270532366    3.90458401583734    1.79614237455914
H         4.68966620272275    2.15794824031277    1.99421448185729
C         4.03923317381462    2.97761206521474    4.71574494000494
H         4.31270066426669    1.91489054466136    4.72467425114312
C         2.70853517664391    3.28026038052368    5.13208924489367
C         1.82439731053512    2.24982584795638    5.49630858388054
H         2.19180032008737    1.23544350252179    5.50462923228811
C         0.52441539759721    2.55702224955674    5.82218199725490
C        -0.07634408325821    0.30369948414336    6.28674422716198
H        -0.97412994755423   -0.21769496593659    6.61445930142257
H         0.72477746644547    0.13676953453012    7.01423970932577
H         0.23122868253947   -0.08485044725876    5.31059395968245
C         0.09005418355760    3.89390207722068    5.75563688286222
H        -0.94807091716175    4.06225400241876    5.98966964922508
C         0.92046552482290    4.93363715552170    5.41165346880543
C         0.44777431044119    6.37654784833761    5.32445201830097
C        -1.03611585933110    6.52416743901114    5.67344974720236
H        -1.32360362134759    7.56899123456227    5.57876273441988
H        -1.23143578162988    6.21312152502687    6.69734865002514
H        -1.65806338512155    5.94393494228600    4.99646734315613
C         1.26388327255785    7.23549375655783    6.30138834715004
H         0.86232903741301    8.24659643768214    6.32952428377675
H         2.30044595013919    7.28823570953560    5.97298729756794
H         1.22306922450762    6.81500733937778    7.30657240386786
C         0.66779543275180    6.88091780737566    3.89000447294128
H         0.32492361671468    7.90964905370317    3.80380094787631
H         0.10732735939827    6.26872030458168    3.18610254148569
H         1.72397137156527    6.84759292738118    3.61984915466860
C         2.28484860633334    4.63295481515501    5.12101656616433
C         5.01218902767845    7.50580099375012    6.82266499000074
H         4.15561302498738    8.12121470197930    7.17154885770905
C         6.29984259244954    8.20863237506087    7.22506978731442
C         7.45142440220988    8.02633994168109    6.47132795597956
H         7.41182469489556    7.40736179532449    5.58521049741820
C         8.63092409800646    8.64240848468661    6.85224543869619
H         9.52264658377529    8.49576048883935    6.26192058650635
C         8.66954793106611    9.44051245762673    7.98311109959993
H         9.59134328185203    9.91810875843503    8.28024991189690
C         7.51879755125928    9.63561349263466    8.72827440843854
H         7.53873562066226   10.27056752778331    9.60202011440738
C         6.33581523190197    9.02559295765059    8.34938222978595
H         5.43370618865412    9.21083567867563    8.91955147829578
C         4.92212178773455    6.14651286075937    7.53740991612185
C         4.65044100678035    4.97147675374074    9.66541111989882
H         4.99887868712401    4.12146165802224    9.07342108846125
H         5.22859205023761    5.03471655745846   10.58955716526828
C         3.17517015158996    4.84105554664902    9.95273026587730
C         2.31195718369184    4.42527038919539    8.94496709805949
H         2.70800691274819    4.16183415235732    7.97469780127792
C         0.95053450716514    4.34856073125058    9.17862820092234
H         0.29232530937289    4.01972471382249    8.38876678820288
C         0.43921700289732    4.68808395224762   10.42046320964798
H        -0.62316583267351    4.62604128029249   10.60336687868893
C         1.29285143369069    5.10417488770179   11.42787389298666
H         0.89812313329884    5.36947440481622   12.39743025909496
C         2.65495479885184    5.18397772666929   11.19342646651938
H         3.31900614091999    5.50927869127860   11.98188655911460

