35
CSD_code = GIVQAD | q = 0 | S = 0 | Stoichiometry = C15H10I2N2O3S2W | MND = 7
W         3.88449644309947    8.47395057719107    3.76096056931931
I         1.08802339423911    8.79733246305498    3.40041625440577
I         6.37414461500529    8.61761850351076    5.10576778708784
N         3.22522762869964    7.38847977491553    5.42520972873009
C         2.91099949195912    6.75392957106954    6.33566102467280
C         2.48014714423468    5.96029655625458    7.44096539072060
C         0.97474240028758    5.90422151949082    7.53990181508753
C         0.30987731081526    5.56735536245047    8.74692041149848
C        -1.03886612773595    5.56428612954900    8.60746096552925
S        -1.52785183040133    5.97127204171307    7.01019658146751
C         0.10575412825293    6.14658775576514    6.52089382223119
N         3.52025731852752   10.10209664083736    5.01409578991002
C         3.21529216499451   10.82322885859717    5.85953078402078
C         2.71701453827655   11.55439250578801    6.98060090432413
C         1.89872171185665   10.54951266850640    7.75773246257577
C         2.32738687062330    9.91884733045566    8.88514120497189
S         1.16452177363287    8.80188825227847    9.47508244661924
C         0.10071610923646    9.17000514650217    8.17533885980036
C         0.61622126338437   10.10428408150748    7.34132210486154
C         4.48921439300622    6.67082079530311    3.15375341208871
O         4.76536861524047    5.53615245021674    3.01865813825281
C         3.72476148722842    7.59279952282379    1.97663778618834
O         3.63525763133080    7.25348421291830    0.85308785606981
C         4.62136360051875    9.62555911214933    2.29945201942056
O         5.01873399029595   10.20140519158986    1.38522775645445
H         2.89548423112409    6.38410246291457    8.36176933889553
H         2.89009543559168    4.94945192137849    7.32130866001724
H         0.82091226604768    5.34176359040845    9.66522649500000
H        -1.77969147679544    5.34521646867112    9.34966989975282
H         0.31831613587515    6.42796404915001    5.50878853915365
H         2.09573922025421   12.38441875120881    6.63344949344489
H         3.54618536553926   11.94360061139651    7.57611532139638
H         3.25275363868695   10.05429584162525    9.40955370778954
H        -0.84565577283609    8.67343840220762    8.10992711296905
H         0.11313488990673   10.46024087660341    6.46047555527600

