56
CSD_code = GIVQEH | q = 0 | S = 0 | Stoichiometry = C27H20AsI2NO3SW | MND = 7
W        -1.20833719104774   11.34474135008846   14.05247287462138
I        -0.25391683417886   10.30437081282564   11.62473685857840
I        -0.64401239866605    8.86545615743911   15.25934842408742
C        -1.14477775615894   13.08498062973845   15.00063234897714
O        -1.01083827515033   14.19235681805102   15.40930958503866
C         0.60947411278708   11.95957979675535   14.62588364585605
O         1.59960732471320   12.38841131362227   15.04873845167254
C        -2.06423898309815   11.89541575378784   15.76632674423204
O        -2.69719647331804   12.15187763753463   16.72839579078471
N        -3.03616035639370   10.38560732530233   13.52860342245439
C        -3.73157006209090    9.49276886824300   13.28862639908535
C        -4.53786853874493    8.38079984319002   12.90696985170474
C        -4.68574494611547    8.34740891172652   11.40403604287174
C        -3.63889993895161    8.28716528949236   10.53383772213462
S        -4.16030735611977    8.23244435258006    8.90561966569187
C        -5.80623937695981    8.29830457603505    9.39329204294509
C        -5.93812249264491    8.36225374354557   10.74195539798842
As       -2.21393944699023   13.03026327613038   12.39660882626208
C        -3.33373586892661   12.44739479544571   10.89247658772661
C        -2.76438333139175   12.18535537986465    9.64783765063165
C        -3.55074909900617   11.72521706175591    8.60673198108444
C        -4.69429499105252   12.22125438518417   11.08071783760650
C        -5.47740527220086   11.76266991555414   10.03554578650389
C        -4.90680173227320   11.51756445940500    8.79798574099869
C        -0.98700181177890   14.23323785889695   11.49400260181254
C        -1.42235211747218   15.05845277544317   10.45813701392402
C        -0.53942093033457   15.93436582691361    9.85305113690311
C         0.78051944341447   15.99094144822050   10.27408465171702
C         1.22015768924015   15.17156613027483   11.29955326927106
C         0.33735087427132   14.29487672543532   11.90780714693867
C        -3.43838979652861   14.23726533237969   13.30532339520168
C        -3.41742014243339   15.61783772774780   13.15987368144042
C        -4.25994478315050   16.40990519995384   13.92242436111295
C        -5.12656844096137   15.83111940471137   14.83336436331248
C        -5.15344354309118   14.45442721210845   14.98662452546099
C        -4.30863680752035   13.66465936213295   14.22967182624027
H        -5.51725114211302    8.44960929679912   13.38716381307035
H        -4.03669125701751    7.47359285740169   13.26824356134142
H        -2.58904875508421    8.26169838266392   10.75089681983579
H        -6.58214689383303    8.28013777601254    8.65483528720175
H        -6.88402783978421    8.40527701402165   11.25196661470626
H        -1.70068605728797   12.34296383631922    9.49782180551715
H        -3.10148346609591   11.52285906278511    7.64662092501748
H        -5.14513913716346   12.42163161421795   12.04855449174791
H        -6.53406294882877   11.59753768273653   10.18752836354362
H        -5.51883499531867   11.16250446225227    7.98292323614521
H        -2.45863388045365   15.00020199493190   10.13106787288467
H        -0.87967329546065   16.57313893384760    9.05124677700201
H         1.46793263341810   16.67378903205738    9.79833640760720
H         2.24865643660332   15.21153167925510   11.62507609840011
H         0.68397126659663   13.64734546392885   12.71302215329729
H        -2.72484265079022   16.07483098618187   12.46089979104877
H        -4.22900139982203   17.48386115208690   13.81262272034806
H        -5.77334075323530   16.45202039204959   15.43457193335625
H        -5.81728204965157   13.99922961903507   15.70686154179044
H        -4.31380416331369   12.58202130328016   14.37053213267507

