35
CSD_code = GIVSEK | q = 0 | S = 0 | Stoichiometry = C16H13Cl2FeN3 | MND = 5
Fe        3.36148632476140    1.39996223823521    5.69811835474239
Cl        2.08922254244115    3.04232527418106    5.98053439300446
Cl        4.47482832919624    0.19650618153469    4.39614357444395
N         1.82124187566783    0.18474561104435    5.52965783083555
C         0.98690004991620   -0.01067631585513    4.52463428310691
C         1.21503500901433    0.77898874945234    3.27952852846595
H         1.45656716087097    1.81215506631257    3.53673775091073
H         0.34248171105615    0.75830127733547    2.63304205675613
H         2.06774984716427    0.36096411714164    2.74280568253323
C        -0.06372817677851   -0.94269849041609    4.62082469612587
H        -0.72365345898556   -1.06872374241732    3.77636956365402
C        -0.24517841735028   -1.67294359958537    5.76440470173332
H        -1.04995912225481   -2.38757743452381    5.85120216155919
C         0.64225012993196   -1.48507913964872    6.84573825129371
C         0.57716179525274   -2.17453552732077    8.07368909864411
H        -0.20442791972918   -2.90405724202822    8.22237874439487
C         1.49572907969400   -1.92064795881515    9.05962960009027
H         1.43794460838292   -2.45414746948203    9.99658071344571
C         2.51871978925447   -0.98213155215227    8.88556629628297
H         3.22307005838768   -0.81387275726233    9.68482618227923
C         2.61566988539674   -0.28401909292494    7.69683183159924
C         1.66853928742159   -0.53421636437611    6.66824734537455
C         4.54728997702672    1.08820246096363    8.10220314102127
H         4.73369394420795    0.70867904037557    9.09553174680572
C         5.33905213450528    2.07548034642361    7.48662033081318
N         3.54672525474847    0.67356836581454    7.33325502708908
C         5.54992654461145    3.31150825913029    5.53199983807955
H         5.15314751147714    3.51810576936548    4.54571776280685
C         6.65876029045001    3.97120919763793    6.01275540780387
H         7.15380932679348    4.71227161851782    5.40720323913064
C         7.12689059933101    3.66127667194551    7.29488136041144
H         7.99521267299719    4.16494001840751    7.69149688399842
C         6.46753761182744    2.71320596236526    8.03427222219297
H         6.79047262442583    2.44201186737588    9.02694149923222
N         4.89683111888003    2.38841859324776    6.23102989933398

