33
CSD_code = GIVTOW | q = 0 | S = 0 | Stoichiometry = C10H17Cl2NO2Pd | MND = 4
Pd       10.84663194358990   14.15485370598007    6.72599608425892
Cl       11.33098311746988   16.06911932201222    7.72596027145705
Cl        8.67321240162981   14.19597049948790    7.16555835935371
C        12.82635563200345   13.19325310332228    4.87791837886307
O        12.95055475774611   13.58976353611794    6.24976194865710
C        11.53220287360515   12.83064389686491    2.28166774108133
H        11.76064040587987   12.37609882162941    1.32434034016700
C        11.30018034567226   11.79612410667683    3.37208886263895
H        10.27721973637447   11.41566639772624    3.32842927815861
H        11.98059733219341   10.95517064167970    3.22594207970813
C        11.52562130318474   12.43020857781017    4.70280257837271
O         9.42051564632613   11.92592332344080    5.43478343693239
C        10.75603660001300   14.12483282005283    2.22780833703796
N        10.62973705744961   12.54739272991504    5.60542136749340
C        12.22831377716125   14.13560335402016    2.58708424661563
H        12.88648822559535   14.50642855790080    1.81000485730318
C         9.66908981285441   14.44054027884550    3.23583632162585
H         8.99405025910057   13.59445351344669    3.35324748905068
H         9.08257994684003   15.28346302840764    2.87908297211595
H        10.04311866665192   14.71698250721375    4.23423636787440
C        14.04233037602605   12.34253258104372    4.50034816931273
H        14.95367595110968   12.88190646204257    4.75095623645886
H        14.04737609638235   12.13226162216083    3.43601054031622
H        14.03336279784960   11.40776901803633    5.05544838120630
C        12.72835484867215   14.44838270448233    3.98206303564773
H        12.06151693557626   15.17091957645437    4.48923633855256
H        13.71672882140768   14.91001897476757    3.91605176462658
C        10.40869008448120   14.63209250824814    0.84131703906118
H         9.45171644134493   14.22376390976499    0.52258252003517
H        11.16364002603997   14.34339854950944    0.11384111494676
H        10.33433352741504   15.71796247353726    0.84410149029187
H         8.82350953362876   12.39499736321303    6.08172771066527
H        13.58913471874824   14.31500153419226    6.32404434011441

