99
CSD_code = GIVVUD | q = 0 | S = 0 | Stoichiometry = C32H62N4Pd | MND = 4
Pd       -1.15520055006502    8.22415520863752   14.19283220117492
N        -2.06160002766111    4.50093693478754   16.21728537016600
N        -4.48218266001830    5.91272595302868   13.67058911364268
N         2.42159968730439    7.53632410396281   12.34589853357740
N        -0.03475481138887    9.44368136140909   10.18638640494390
C        -2.01360287062702    6.36309145420023   14.41286313730719
C        -2.44778655804249    5.30308853946803   15.23142106610057
C        -3.31550944690505    5.82880489787147   14.29904923750340
C        -0.74156622733381    4.76752520892765   16.78294945251820
H        -0.33056762993866    5.59103777316758   16.18552527478641
C        -0.83216339433407    5.24169534737202   18.23239382477351
H        -1.47232049966265    6.11829098908787   18.29228794786820
H         0.15717315981297    5.51858707122193   18.58691396300673
H        -1.22577658540653    4.46739783548348   18.88831117821916
C         0.17400982397299    3.55169840535500   16.64141450960545
H        -0.15884307074735    2.72501571671269   17.26610861214194
H         1.18356115229798    3.81689829927413   16.94441369531263
H         0.19773969586535    3.21882164127422   15.60603718953259
C        -2.92435403501472    3.48839164219653   16.80245466137334
H        -2.34301525141359    2.99073889332259   17.58408507171386
C        -4.15334521281960    4.12203645407052   17.45967622016788
H        -3.84624456169574    4.76598264864401   18.28043390705667
H        -4.81487565078389    3.35244649497628   17.85017295316604
H        -4.70377572839794    4.72983505255033   16.74736984146995
C        -3.29792777939378    2.43551163193514   15.75575705715534
H        -3.78622602352024    2.89413580425566   14.90022786391133
H        -3.96718552072911    1.69431858494711   16.18546436458002
H        -2.40201200443151    1.93085251300536   15.40049961978252
C        -4.62355154413057    6.96297578172307   12.65863656264651
H        -5.64201046299846    6.87862914914630   12.26596495152586
C        -3.63110343496884    6.74510519603683   11.51692627243045
H        -2.61721608191168    6.94030228190178   11.87192726109309
H        -3.85356746152870    7.42885407408650   10.70201644659953
H        -3.68605805784589    5.72478289412482   11.14213405746292
C        -4.43595170706502    8.35652290676475   13.25982108935928
H        -5.08226290312769    8.49455180201957   14.12413188605461
H        -4.68615523671183    9.11052115613622   12.51638286510807
H        -3.38470787573202    8.50909909105834   13.57712969962301
C        -5.60948254002347    5.05707375245766   13.99543213375927
H        -5.25853423157680    4.36525967137013   14.76732582934381
C        -6.77791515643000    5.85704765264249   14.57782621090526
H        -6.43745118548138    6.46098467813857   15.41639863029767
H        -7.55155433078947    5.17877062339419   14.92976189656348
H        -7.21433567029887    6.51755165207961   13.83307420337965
C        -6.04967905516087    4.22268039199054   12.78906849779236
H        -6.46810372609222    4.84872897274668   12.00526566689274
H        -6.80832120955733    3.50632805285141   13.09469999328926
H        -5.20203072125046    3.67687269028138   12.37937971449610
C        -0.13151207710131    8.10780915262997   12.40738500250585
C         1.22373174963576    8.01006744714237   12.02357609178792
C         0.34336604159470    8.70751662769556   11.22540314881237
C         2.53343203919877    6.80150847927765   13.60862340119024
H         3.58310899934960    6.50463158477064   13.70152906708719
C         1.66308002109971    5.54554659373849   13.57689428113112
H         0.60935650243839    5.83043565363838   13.59964891185495
H         1.87712386166848    4.92886871884141   14.44577403486111
H         1.85397537160209    4.96186686251894   12.67831801963889
C         2.15515666009558    7.67384257732257   14.80634942707705
H         2.71378208578065    8.60744955208638   14.79595857565279
H         2.38309241346831    7.14417457190903   15.72902446993947
H         1.07206904424999    7.91044106084598   14.79348727296990
C         3.60275100702697    7.77913319485905   11.53698982539362
H         3.26544877258318    8.34035147190557   10.66017714623497
C         4.22467034340544    6.47080169205776   11.04027523996167
H         4.63667371392977    5.89049456489825   11.86177202031988
H         5.02746375678128    6.68802033888797   10.33997890075470
H         3.47532382489132    5.86669419778919   10.53258642573990
C         4.62927539275169    8.63953732725302   12.27880051500303
H         4.15991287645630    9.55030209506233   12.64490846338917
H         5.43870647553943    8.91226802025541   11.60587983036104
H         5.05300019925971    8.10642815434388   13.12593941683705
C         0.87862461349816    9.86932894477828    9.13913235715924
H         0.29101092238844   10.45382217763073    8.42524434920605
C         1.44270371996624    8.65516610125472    8.39667714051422
H         1.94897608648101    7.98096884514153    9.08208673713135
H         2.14768937272195    8.97205380704976    7.63213759514462
H         0.63543939779147    8.10438704182834    7.91864090922959
C         1.97809779504877   10.77558183110103    9.69929799589737
H         1.54085205431768   11.68630265384865   10.10180129514733
H         2.68400673293839   11.04489433792450    8.91727393147055
H         2.51610947450770   10.28105179882348   10.50293093080852
C        -1.41556174358830    9.91973276510675   10.20451077373028
H        -1.86039927527468    9.48613525506675   11.10902901056583
C        -2.18776023147435    9.41538018274953    8.98555192121323
H        -1.82206024195112    9.86654208897927    8.06513565684988
H        -3.23984848394680    9.66778130473513    9.08894266409588
H        -2.09574896310707    8.33448949626860    8.90462783778721
C        -1.48815082960251   11.44050573252338   10.33063972324249
H        -0.94613494307684   11.76138753183253   11.21667726842765
H        -2.52524329103146   11.74745774547735   10.43711463086107
H        -1.07191425522283   11.94001930084754    9.45774096274389
C        -0.62521608716089   10.24119501566285   14.15385974383707
H        -1.52057953353133   10.83400308003537   13.90070279589511
H         0.14879060800071   10.51766857037448   13.41980774067594
H        -0.26835614013179   10.60996526018851   15.12377317616758
C        -1.88280578765836    8.58322875220039   16.11451124173539
H        -2.62307865973588    7.85738760071277   16.48804767383751
H        -2.34734090654891    9.57159680401989   16.22088176731341
H        -1.03524521275924    8.55510708955271   16.82031650826692

