76
CSD_code = GIVXUG | q = 0 | S = 0 | Stoichiometry = C36H32CrO4P2S | MND = 6
O         6.60433385557834    6.13384203456914   14.61375879160616
O         8.73959218826903    2.99303494014074   15.63271432265894
O         5.01827739835399    2.76828855103319   15.75247544121352
C         8.03136364389754    3.13522619895672   14.72675565800581
C         7.20426495166002    1.60067741845710   12.62021942263047
C         5.64584288512567    2.90477247058725   14.78522686350729
C         6.61902660393365    5.10674204036253   14.07712005197698
O         7.44254596920392    1.68759636027962   11.28911646654494
C         8.89262608107028    5.86264349647325   12.18379127938648
C        10.40623258699067    6.97378281189347   13.69655538737438
H        11.13115491979975    6.92478118702646   14.49556051599323
C         7.49052903920361    0.40921646341708   13.34343988827101
C         4.59864763962963    2.34641963987733   10.74576240786872
C         2.53760805223334    4.58701920666264   11.15004308863990
H         2.71255258565425    4.17321320798553   10.16620221973738
C         3.28011249352705    5.01333971018856   13.39568065333666
H         4.04496089206903    4.93284010551988   14.15684591348161
C         1.32707205914980    5.18857771512699   11.43915769725142
H         0.56337413008008    5.25290119769728   10.67747993445210
C         7.90223523057384    0.58986077669754   10.50295703978393
H         7.27777135927756   -0.28908104592999   10.70466593689148
H         8.94326659213962    0.35876161309332   10.75724342112563
C         6.88161816492836    0.03895401493466   14.53106664807442
H         6.04842229995161    0.57850912223708   14.93999977299690
C         9.68599099794720    3.45305672576327   11.12080770904338
C         3.52539210669156    4.49994556213920   12.12768876046544
C         4.51974967262592    2.31925646578034    9.35918171517378
H         4.81030073137613    3.17756695078809    8.76928134242513
C         4.22831522458528    1.21584842158060   11.47135887911105
H         4.31107124409171    1.24487102084102   12.55244750689928
C        10.30683220321681    2.52429810733955   11.94940542147079
H         9.85582545091670    2.28843165106117   12.90672572694709
C         8.52707790384873    7.09566063287873   11.65945211711719
H         7.78608904940316    7.17138704530826   10.87658670065992
C         9.82991646517742    5.81613724939668   13.21515592280196
H        10.09266598503347    4.85571148843914   13.64215687804714
C        10.25991721086359    3.76328956322074    9.89290541606217
H         9.80130787181918    4.49826694568776    9.24674606690992
C         2.06716770284650    5.61546488550122   13.68119530324629
H         1.88341641454461    6.01193414350493   14.66860769817369
C         8.46189592002502   -1.63281337371345   14.43782524988451
H         9.06739758370201   -2.48538490065859   14.67378096214807
C        11.47227710410148    1.89613039881945   11.54945685330458
H        11.94178095471794    1.16909360686911   12.19567386774308
C         7.41844181899240   -1.10521080080553   15.13426839659205
H         7.05251856734259   -1.51875612262526   16.05715796288370
C         1.09072225230861    5.70501422339272   12.70334532576600
H         0.14287069122492    6.17237675832598   12.92591852139260
C        11.42545111280950    3.13285356103717    9.49472013638091
H        11.86521588179427    3.37359551904678    8.53738181448253
C        12.03032190144429    2.19697988334225   10.31786771030091
H        12.93788147859190    1.70546321726624   10.00000393579441
C         7.22341148733215    4.61171394128641   10.18760443361855
H         7.70722089675330    5.39836955615601    9.59994698966253
H         7.21432780811191    3.68643428767825    9.60550709937740
C         5.80124549659541    4.99489614157698   10.57908128681799
H         5.14299782808727    5.11500948043617    9.71192463190707
H         5.79925550499539    5.94004032713338   11.13804820281275
C         7.82257576496506    0.96512818379486    9.03245669689937
H         8.13598161381728    0.11816703991897    8.42842404266736
H         8.48335367011885    1.80374818268107    8.82531078960685
H         6.80292832401891    1.23042469613382    8.76490041651684
C         9.10404552652493    8.25656941481869   12.14695155670290
H         8.81041289629289    9.21159439835854   11.73499271717359
C        10.04370522947983    8.19997361816692   13.16028310361624
H        10.48659960730466    9.10935799797147   13.53846724280109
C         3.78483155479109    0.07894745334658   10.82478691205673
H         3.50311735307395   -0.79400539626821   11.39530735840138
C         4.07192924291606    1.17789359959671    8.71265277256076
H         4.01350573482789    1.16252505646244    7.63323526165761
C         3.70611849203790    0.05895976495579    9.44041498113686
H         3.36295835472621   -0.82834013513857    8.92928934466674
Cr        6.77339229015857    3.37866508711955   13.41867120463179
P         8.16191283215244    4.24548414558836   11.74748004456928
P         5.15508356563760    3.74222083150677   11.78476214783471
S         8.78094580093726   -0.75816574009365   12.99965803827480

