51
CSD_code = GIVYOB | q = 0 | S = 0 | Stoichiometry = C20H22N4O4Pt | MND = 4
C         8.48003647451652    6.02794771403544    7.03933454206253
C         9.83119729850813    6.29059264384334    6.83067588632248
H        10.16704772043160    6.60829301226392    5.85501224413422
C        10.73888370872231    6.12054715115976    7.85989160868047
H        11.78645749881892    6.31605179517460    7.68787824841715
C        10.30629949545304    5.70377418486171    9.10817946543541
H        11.01621127563452    5.57599594392143    9.91131649270170
C         8.96115518897168    5.45528582654218    9.32602735991566
H         8.61950787468925    5.13782954245905   10.29971010991038
C         8.05024350134884    5.61181969130225    8.29756722104215
H         6.99879808950708    5.43362135102519    8.47021779051354
C         7.51012808258723    6.23459176527416    5.94802526739577
C         7.49167326013317    7.48889265213337    5.27300311192728
H         8.14935580695612    8.30664068072401    5.53958920073721
C         6.75518162650892    3.95247325205597    5.87241778419969
H         5.77003229464420    3.60883911676113    6.20498614879324
H         7.48674541351968    3.77753787033743    6.66440035051667
C         7.12192685990596    3.13937182922332    4.60299008328731
H         6.90175133044222    3.77535812498630    3.71599088568069
H         8.19000281215337    2.91018291072923    4.59199044411517
N         6.68866635087704    7.58244124680439    4.23848603263469
N         6.66688900566999    5.34049771029364    5.51687583557741
O         6.68410576956420    8.62130683417953    3.52059280202260
O         6.44841357404428    1.92582531446882    4.52628378388069
H         5.49487190044878    2.13105292260163    4.53557805015555
Pt        5.42625961082371    6.04284006671382    4.06973921841200
C         2.37323303267836    6.05725870061834    1.09970427314881
C         1.02221874784557    5.79472155607407    1.30831139022582
H         0.68634868093290    5.47598276357461    2.28376531578954
C         0.11457320291118    5.96480082230865    0.27909713405580
H        -0.93313741020525    5.76760305231059    0.45067971955363
C         0.54707629658302    6.38146365053608   -0.96915677660472
H        -0.16281679942284    6.50909569795070   -1.77233000855771
C         1.89212222165958    6.63038581827084   -1.18685612427780
H         2.23372935665869    6.94796948448016   -2.16045797358036
C         2.80298610276848    6.47396381519395   -0.15834636681185
H         3.85428058941706    6.65201217431753   -0.33096637491972
C         3.34320226718478    5.85054757867775    2.19090747200728
C         3.36157993065155    4.59633320728883    2.86617870384638
H         2.70418638098586    3.77842891051464    2.59941102428189
C         4.09760095171836    8.13279038517723    2.26683378517072
H         5.08263031503109    8.47645712885935    1.93388795030710
H         3.36575436632355    8.30771385938186    1.47507205302199
C         3.73163582922929    8.94568081903930    3.53681047345987
H         3.95194259649647    8.30981324071275    4.42387538666192
H         2.66355916718872    9.17496774877110    3.54824084398886
N         4.16403097241454    4.50304152359555    3.90117615556055
N         4.18634111009041    6.74472086899112    2.62200553733491
O         4.16931965049150    3.46384795607532    4.61848417245959
O         4.40510009492676   10.15926534061416    3.61341307711708
H         5.35866052055864    9.95412274279037    3.60369918828905

