59
CSD_code = GIVZIW | q = 0 | S = 0 | Stoichiometry = C30H21NO4PReS | MND = 6
Re        6.97181391196175   11.80567338647530    9.52955296669023
P         5.55058482232319   10.80094386682912   12.54073392722642
S         7.04144760690721   12.04664721274259   12.15581267428516
O         5.57516593218233   13.46051203454858    9.48415154359894
N         5.08260066817474   10.70181904184183    9.80379883151448
C         5.20982447028369    9.38835515222499   10.25807706956559
C         5.50639796749484    9.23515319630446   11.61978275172910
C         5.71356275226574    7.97882539927998   12.16798318397025
H         5.94641577153647    7.87622700541197   13.21855615253219
C         5.60583139772806    6.86542701087930   11.35408842677212
H         5.77079381836414    5.88248661657723   11.76804167010346
C         5.28323262120847    7.00754983370801   10.01166799736281
H         5.19647726455824    6.13063943436278    9.38772655229783
C         5.07746205035130    8.25776748089855    9.45863480066069
H         4.84890305756803    8.37261595627943    8.40918764981355
C         3.93782564459011   11.05889854596980    9.24613613421769
H         3.18132173824101   10.27840157548960    9.13069438553817
C         3.56426166128216   12.34624435875082    8.91426254516170
H         2.57859039336757   12.48444593653410    8.50256029166925
C         4.36635740309080   13.48429609044434    9.14523379927603
C         3.75588603746739   14.82966996229094    8.98288806881339
C         4.59584959988673   15.89718610332856    8.66952839041276
H         5.65198205510218   15.70684293403952    8.54571836336413
C         4.08410943548336   17.17060072369337    8.51175217393914
H         4.74323582059832   17.98853045144534    8.26088651675461
C         2.72752247827408   17.39722298735287    8.67672425640253
H         2.32468582251119   18.39211777334027    8.55579954570498
C         1.88738071470900   16.34479325722890    9.00286286929910
H         0.83039332570029   16.52166562871118    9.14190705658552
C         2.39454446347821   15.06753978299971    9.15420883559993
H         1.73208545210369   14.25972546764175    9.42754523399097
C         3.90577733837857   11.55773393673263   12.34965644749742
C         3.81431070913080   12.94248933646843   12.31992921400867
H         4.71348875678186   13.53919727642454   12.40659534965563
C         2.57879278636121   13.54655839034315   12.17036794363047
H         2.50747646081593   14.62373109966223   12.14413791837029
C         1.44131859781118   12.76719954363466   12.04328086092773
H         0.47673059822397   13.23746809899635   11.92071099841048
C         1.53417348464553   11.38353828866040   12.06916268525955
H         0.64470801656256   10.77910461813500   11.96676301658715
C         2.76410790314418   10.77307606134763   12.22426055675314
H         2.84735621531739    9.69386394647233   12.24263503322205
C         5.67984696540497   10.32003950115078   14.28662939645962
C         4.59037422277282   10.33673093787962   15.14664055792630
H         3.62093340729979   10.65617723134519   14.78996366673544
C         4.75493995388039    9.94758563027177   16.46466925453439
H         3.90959846018585    9.96388752376641   17.13660456280166
C         5.99767821532684    9.54087546692458   16.92141688546088
H         6.11968449168140    9.23835501476966   17.95070861822615
C         7.08591929673845    9.52696036444841   16.06263146750564
H         8.05539464884138    9.21361855649115   16.41979410263994
C         6.93033994163916    9.91905565822346   14.74671960267291
H         7.77269375928217    9.92740924593100   14.06778615905170
C         8.50288518255912   13.00793053758765    9.42477138553721
O         9.36726435367105   13.75508510213586    9.39804842789252
C         6.86877335642585   11.58370159366511    7.60310257023012
O         6.77444448505329   11.44951344964589    6.46538797384874
C         8.09980558032170   10.24543171935786    9.77994282999838
O         8.70593665296277    9.29655766189725   10.01037784930585

