59
CSD_code = GIVZES | q = 0 | S = 0 | Stoichiometry = C30H21NO5PRe | MND = 6
Re        7.88549142946891   12.73888645264141    1.74528256038177
P         8.56089426269243    9.80776848981318    3.11886550115317
O         8.67697421735362   11.26358892803003    3.40541405028397
O         5.99880548876069   12.70746176754212    2.77794488275333
N         7.12185948740608   10.85580240075487    0.98937162498130
C         8.07837957676524    9.97868235917891    0.46345631672119
C         8.92695536819712    9.36349983320548    1.39314542379473
C         9.92886412409568    8.50448152143322    0.97358604264533
H        10.57995060478692    8.04042806710866    1.70118549080909
C        10.07973567790596    8.24880894968507   -0.37832034060743
H        10.86197749155354    7.58551649365285   -0.71477075178656
C         9.22860181400658    8.84026998265414   -1.30035849614870
H         9.35159011555409    8.63137635206695   -2.35260377015671
C         8.22438851931678    9.69853541643616   -0.89021847129808
H         7.56962296629966   10.17357237547112   -1.60615939776378
C         5.85353842591724   10.51966823891846    0.86578960629271
H         5.63251786904120    9.63750684378788    0.25805845715388
C         4.78744372482433   11.10101144864268    1.52956303792625
H         3.81627727241462   10.66347758732807    1.37067861374087
C         4.93228313819629   12.09572391888453    2.51410644837838
C         3.76292864959558   12.40937979245203    3.37914290390706
C         2.44594836511677   12.28877225381363    2.94573827241382
H         2.23131950374202   11.99165305371445    1.93042709112035
C         1.40111857676261   12.58391768809974    3.80228347779628
H         0.38224289887643   12.49328601289285    3.45449878738917
C         1.65397478100652   12.99854371331378    5.09953100298957
H         0.83375664206710   13.22114873502229    5.76617522372296
C         2.96179138681917   13.13938289401106    5.53385059843043
H         3.16531603397803   13.47547890291206    6.54028214857726
C         4.00713035209811   12.85486566086915    4.67719982639636
H         5.03027017046327   12.97381831877098    5.00230071981707
C         6.90162034170879    9.16442263155134    3.48753317216462
C         6.15986366580050    9.85677259652779    4.43487160154297
H         6.60356143903729   10.71261823130791    4.92595427534736
C         4.86689768722658    9.46091454568482    4.72556023770742
H         4.28359960765818   10.00670404905894    5.45241018596724
C         4.31873141753420    8.37128451164860    4.06970656637549
H         3.30561476872336    8.06705796848504    4.28686731352770
C         5.06256337411490    7.67297824934724    3.13099231125311
H         4.63016792528083    6.82422792199365    2.62122029908885
C         6.35488434142203    8.06645847310658    2.83634924036445
H         6.93454636900253    7.53783115413251    2.09051426750239
C         9.72377209443394    8.88669747944554    4.15545384362744
C         9.59179069523272    7.51768719139072    4.34869739839855
H         8.76739668171808    6.98664671797000    3.89306365955524
C        10.51536657620398    6.84651128679639    5.12855882707072
H        10.41776366787060    5.78194653809059    5.28316055571105
C        11.56507329632669    7.53949876165937    5.71244708811589
H        12.28379000501166    7.01073302001646    6.32082563847212
C        11.69335976540132    8.90562312358242    5.52098109285418
H        12.51096222842869    9.44252214625218    5.97836988041343
C        10.77201793182338    9.58193984392384    4.74124719072270
H        10.84957036219911   10.64774247054799    4.58000073332527
C         8.49255191919623   14.28055997797509    2.77307552078855
O         8.83444368991493   15.14327107980012    3.44061426626309
C         7.19068318389026   13.84437707192098    0.31481696370414
O         6.72563371653883   14.46080317187112   -0.53698385251628
C         9.62533128996194   12.53506407027753    0.90705627423555
O        10.65449302325662   12.32159126252470    0.44428856660147

