105
CSD_code = GIWBET | q = 0 | S = 0 | Stoichiometry = C43H57N2OPRu | MND = 8
Ru        1.36743734395892    3.64599081341430    3.37394342367843
P        -0.51507260613360    4.78203295848992    2.61321963503726
O         1.61962843958447    2.08415262581987    0.84973192626840
N         2.51523919670033    0.46420151999554    3.47482907442154
N         2.65634342147599    0.02866588535197    5.72325803538308
C         0.19726118975393    2.18868266917542    4.30267765487230
C         0.63831978748371    1.08174275368200    4.88882514573219
C         1.98840763209716    0.49215973554611    4.72531463906181
C         3.66725190572896   -0.36128698723839    3.17906877833300
C         3.27380819975998   -1.83885526860747    3.06556453970365
C         4.49306212352021   -2.69376006596227    2.73892422227418
C         5.14845373544468   -2.21707039926817    1.44607909095121
C         5.54187271718983   -0.74733478967296    1.55966430569649
C         4.32074214623172    0.10836183981103    1.88172742612403
C         2.03349209801387   -0.02189451642993    6.95928837842508
C         2.97738547388763   -0.22607999198501    8.11137170157138
C         2.26312631709862   -0.12529288983994    9.45385179645643
C         0.96673569310063   -0.92564026918531    9.40227407846037
C         0.01283951825091   -0.28168269395481    8.39987933843639
C         0.69893569305295   -0.02127202234395    7.08819630089755
C        -0.15834063352335    0.17767470512164    5.84129895975041
C        -0.31948051255156   -1.13598095983384    5.08233732932812
C        -0.79009622427654   -1.10543058679517    3.77240862014312
C        -0.89607601443481   -2.26523538457348    3.02906413603481
C        -0.52855251171370   -3.48092438223881    3.58179092528254
C        -0.06378296509536   -3.52252519813938    4.88364106578551
C         0.03999125189505   -2.35975510104375    5.62844376503039
C        -1.48097085134152    0.79465432463069    6.23035991329545
C        -2.70154563397265    0.18372130545324    5.98171161225256
C        -3.88565275150875    0.78775177022334    6.37188534506321
C        -3.86894476209835    2.00968352377620    7.01904375745839
C        -2.65550210960037    2.62446867723328    7.28143509747250
C        -1.47579990695576    2.02125421725400    6.89162359799322
C        -1.14815247884746    6.00042585364446    3.89688866660615
C        -1.54133083266619    5.26549422050600    5.17590351897506
C        -2.27069914039399    6.95061185581717    3.48776609174261
C        -0.24986279440632    5.88827664459907    1.12150104411161
C         0.28793803893101    5.06568612124066   -0.04437785226695
C         0.71822452171343    7.03057115345173    1.40895163959614
C        -2.05993274964824    3.80903605010840    2.14525646392611
C        -1.70884923652659    2.42453695047478    1.60170068984713
C        -3.03695508286166    4.48635721338594    1.18417043648191
C         2.72010387914523    3.54776765804004    5.20981536458132
C         2.03784245323008    4.78525765621331    5.22011291624149
C         2.47918820368573    5.52682272623400    4.08811543113307
C         3.39398798128570    4.73659627857567    3.36643007128033
C         3.52835993985022    3.49591019244995    4.05127412758712
C         1.46270316408237    2.68885822234467    1.82687283634551
H         1.84336872635524    0.54585901000775    2.72577610733415
H        -0.84235658820589    2.44865523202000    4.52532866473063
H         4.35662018509847   -0.24305580752431    4.02122875323474
H         2.52126898489750   -1.94936513949009    2.27974268363860
H         2.82418089759339   -2.15759476163849    4.00754884926286
H         5.21167126719778   -2.62226060773136    3.55816649090668
H         4.19599753916630   -3.74019532524701    2.64356468499745
H         4.44675397390757   -2.33995863695763    0.61777676049090
H         6.03134505545835   -2.82247336732837    1.22999875643256
H         5.99471856992886   -0.40866390169273    0.62521313736600
H         6.28389455156235   -0.63226016144411    2.35340155759485
H         3.59405182223810    0.03267109324005    1.06926221297416
H         4.60682717637256    1.15838191430827    1.96980212392000
H         3.78529203178520    0.50698118916361    8.04231688913692
H         3.43623737211408   -1.21346510586219    8.00050473609665
H         2.91252102712675   -0.49514332805950   10.25043003501946
H         2.02781300970676    0.91961438849970    9.67011341786087
H         0.49807949284795   -0.96305686336219   10.38826839284696
H         1.19080955276776   -1.95053974758406    9.09703419374683
H        -0.86126837546609   -0.91999006164301    8.23583869469697
H        -0.36197089920703    0.65953637293596    8.81873634592192
H        -1.07241144506523   -0.15824358384750    3.33454089284714
H        -1.26120485227980   -2.21938145982994    2.01277417138848
H        -0.60257711464000   -4.38820633690156    3.00009112003576
H         0.22542847226809   -4.46594658342385    5.32431651245033
H         0.41690027068344   -2.40890317331429    6.63795982078422
H        -2.73454390467692   -0.77471762749042    5.48511935061686
H        -4.82644219824297    0.29534066236713    6.17077125644586
H        -4.79354058760298    2.47854780790869    7.32359123102619
H        -2.63042662268910    3.57551015594957    7.79450381978624
H        -0.52964705916783    2.50133032134478    7.09900241258477
H        -0.25558988285464    6.60012194751971    4.12122108467335
H        -1.67534673097997    5.97829161717902    5.98866169811446
H        -0.77170409844396    4.55216633180344    5.46384497199841
H        -2.47684191342438    4.72394658461844    5.05009922721184
H        -2.38850497168267    7.71014798693409    4.26061587484780
H        -3.21539712790221    6.41958951303988    3.40596165097737
H        -2.06359039299635    7.46038189303375    2.55072781342674
H        -1.22365065805533    6.30596441197635    0.84750383338477
H         0.38630362634528    5.69091608753961   -0.93087577442561
H        -0.36447033238689    4.23095099622986   -0.28453801935078
H         1.27023671845993    4.66683997524911    0.20550206347225
H         0.82956185545507    7.64784724715327    0.51811122477109
H         1.69770847729786    6.63074024561731    1.66282396515554
H         0.37208636862738    7.66950217103417    2.21801936955844
H        -2.56343618428312    3.66445008794509    3.11037694637084
H        -2.60508221838602    1.80679935270815    1.56278913794164
H        -0.97271677224315    1.93772684174344    2.24019100344877
H        -1.29737106043599    2.48612791536930    0.59728299802235
H        -3.94641731487164    3.88858202710562    1.13377840671958
H        -2.62339943126420    4.54029961171575    0.18046873411854
H        -3.31408632607747    5.48626710482038    1.50050472823419
H         2.71622889255542    2.81410409694781    6.00381201369371
H         1.50485849245266    5.20184221114904    6.06553893421547
H         2.27967615796816    6.57699544497945    3.91947528580918
H         3.99894007621039    5.06332886836405    2.53056810349872
H         4.26183215144420    2.73147624589739    3.83759558508414

