52
CSD_code = GIWDOG | q = 0 | S = 0 | Stoichiometry = C20H23CoN4O4 | MND = 6
Co        0.68147963198667    4.45985914271246   11.51255607163528
N        -0.23271331821835    5.86055266901980   12.38302578742884
N         1.98273519121338    4.76491170133073   12.90746849167911
N         1.80971901238902    5.73336718290821   10.36837605686622
N         1.63570268729394    3.17593974751623   10.53163308976325
O        -0.83791263748350    4.32723484001504   10.22833965410687
H        -0.95322476595180    3.55965512714836    9.64917347321544
O        -1.45587586494520    7.75270711737073   12.52072550716657
O        -0.19012212390243    3.16218571180223   12.48744848219103
O         2.79633220706637    1.26460775595877   10.22763365641196
C        -1.41231673788463    5.45253340536315    9.68924202414406
C        -1.91046911989737    5.41177501588734    8.39301256289083
H        -1.85444444704095    4.48755446213706    7.83189253753419
C        -2.48169951299557    6.53785577425495    7.82608501106360
H        -2.86496965911871    6.49300247437669    6.81808706627525
C        -2.55935002377382    7.71031441226860    8.55794190768589
H        -3.00469396874941    8.59209253483257    8.12399926105030
C        -2.07640963882410    7.74177132634224    9.85220118644656
H        -2.15192397975805    8.63345436168433   10.45666306473355
C        -1.48959807681078    6.62650672320350   10.44349790251848
C        -1.05738090244294    6.77586038913488   11.88189723066274
C         0.11320996559576    6.04843460572942   13.78246740060309
H        -0.76617767138309    5.87489721295698   14.41149656379545
H         0.41450972595061    7.09333833038891   13.94224305548374
C         1.22991389999202    5.06393461670505   14.13954803770909
H         1.89688757826219    5.47274010088793   14.90749441972826
H         0.79545148135894    4.13459755581577   14.50577427924538
C         2.86552130101737    5.88305130363615   12.53852505059582
H         3.80798259511732    5.84613187667319   13.09587142885058
H         2.34957475124790    6.81423094890676   12.78023351489596
C         3.11326972655281    5.82633590678782   11.03800856520286
H         3.68495463722374    6.69896683678607   10.69984790095571
H         3.68001194564652    4.92412052493121   10.80252350779370
C         1.92188058265594    5.10943787315170    9.04662121335689
H         2.74126904748117    5.55469932233222    8.46751267658037
H         0.99187051272176    5.28904738270399    8.50303582060693
C         2.15870636229252    3.60584703681074    9.24180607540128
H         1.68445061563403    3.03786726389857    8.43058391261002
H         3.22817563470029    3.35705136209388    9.19819490194185
C         2.03307037569436    1.95111941159000   10.91109369505755
C         1.49796667833253    1.45332235936455   12.20607872770613
C         2.06035171100191    0.29023202500037   12.72187787438991
H         2.86632974266613   -0.15889572998362   12.15952366438400
C         1.60532006901124   -0.27659867820082   13.89413222078778
H         2.05868881197059   -1.17734157874374   14.27921980356513
C         0.54713407020058    0.32114361166004   14.56527740874163
H         0.16922513259181   -0.11540578914836   15.47901932291350
C        -0.02340473079165    1.47612496157076   14.07980031068792
H        -0.85780087114336    1.93969872491554   14.58541700292956
C         0.42837793400714    2.07703338076836   12.88696874979900
H         1.41290053098165    6.66815784037598   10.27732901163421
H         2.54821390125636    3.92683752436710   13.05947385657775

