57
CSD_code = GIWDIZ | q = 0 | S = 0 | Stoichiometry = C26H28Cl2Ti | MND = 12
Ti        4.44788450388161    7.11606198574374    7.73844146385746
Cl        3.69692310329771    9.16764113361104    7.29642448410740
Cl        6.43674668836106    7.97552753666882    8.29106871588918
C         2.77236624368225    5.73686559632955    8.87525199712013
C         4.09708442585504    5.43526841099286    9.33490283701296
C         4.58383721450335    6.56384404003403   10.01750193054513
C         3.67158984388068    7.62504415125200    9.86638303161740
C         2.51282699990664    7.11871528349420    9.18806827056778
C         1.26033887998258    7.70416531013475    8.89443536460882
C         0.30830346775394    6.88764750589833    8.32302230818801
C         0.54306677530817    5.53197002212192    8.06216910049757
C         1.74919261791476    4.92619575994884    8.33814078744431
C         1.94940689120664    3.45754233855316    8.10325080110065
C         2.64929792493044    3.18274971932827    6.75783853269685
C         4.04278868832838    3.73473140265156    6.76196334839598
C         5.11660458765515    2.95889059812194    7.14186671614345
C         6.42117680283853    3.46461255164977    7.18979983353574
C         6.72757212955935    4.75514973912139    6.81058840995849
C         5.65842972542289    5.56452444800345    6.36597150135384
C         4.30442871250647    5.07116602561377    6.39842259916883
C         3.45834812494007    6.10916654989001    5.88906598153401
C         4.29293209679265    7.12483622881702    5.37732407123019
C         5.62210358290532    6.85383564216257    5.73267811340742
C         0.95786096759817    9.13136118661434    9.28407611685274
C         0.27177820636249    9.90152486893415    8.15610597817252
C         0.10178528611489    9.13986398689374   10.55445714488464
C         8.14775772952251    5.26628922235594    6.83858779008729
C         9.03074860994742    4.47410952117227    5.87175734274712
C         8.70134974622218    5.20980115297617    8.26441301779581
H         4.55087444755063    4.45331880405542    9.37029165378499
H         5.49863740922616    6.60097742212775   10.59830641922999
H         3.76522947854177    8.59451734775972   10.33998340466341
H        -0.67030622123528    7.28335987483177    8.09918156121846
H        -0.26478190663628    4.93652839682012    7.65981562972936
H         0.97876833115271    2.95770137542482    8.10065656235794
H         2.55196884163293    3.03002117496795    8.90790695538044
H         2.68428563515041    2.10350487453151    6.59662413730369
H         2.06412029095254    3.63123691222128    5.95270169102694
H         4.95180794791341    1.92319830578117    7.40477176300786
H         7.21085705311686    2.80154703897664    7.50961782592417
H         2.39801430166313    6.02382563267712    5.68478551538029
H         3.96233698419341    7.96862080146897    4.78252357130111
H         6.47849707045486    7.43721598827073    5.41991981542925
H         1.90313151917802    9.63782485849829    9.49857990754879
H         0.15831419273564   10.94533232158150    8.43929266506296
H        -0.71505451067554    9.49985627472408    7.94102050513602
H         0.87816894066414    9.85252000347693    7.25489434625793
H         0.60904019817016    8.61058707127073   11.35849055459014
H        -0.85356837198180    8.65249683737605   10.37278473537735
H        -0.08598370628612   10.16190030612030   10.87517218737147
H         8.14702073898139    6.31476720308613    6.52801991162605
H         8.62171169380414    4.51429486413427    4.86443309800591
H         9.09777228169861    3.43159587965606    6.17310279574462
H        10.03484305808994    4.89143511294391    5.85500810837551
H         8.07420224272574    5.80616407755908    8.92460077299741
H         9.70980319748793    5.61553823046561    8.28829382059706
H         8.73235828453723    4.18781109010776    8.63444249505387

