42
CSD_code = GIWHEA | q = 1 | S = 0 | Stoichiometry = C16H18ClN6Zn(1+) | MND = 5
Zn        0.42503003839435    5.51196301740713    3.32170446312165
Cl        2.18527829618375    6.25565147891391    2.33755983706464
N         2.26183831377578    2.75415410006222    5.63028853829290
N         0.80563816987209    3.77201682692144    4.31814120218201
N         1.22680261490428    6.24856803064527    5.32830826989750
H         1.62253904666289    7.18099676542086    5.25529236853379
H         0.60034897457531    6.23642928026495    6.12874223331392
N        -0.82783166925880    4.97763976356656    1.79459055599775
N        -2.49793056851695    5.46631033136774    0.43495306931442
N        -0.99600555868862    7.26991361334889    3.24481290907159
H        -1.24406469579609    7.82462504144663    4.05832547012710
H        -0.42383373707515    7.86344843679020    2.64574432984935
C         0.59006360487626    2.41514354634680    4.21111057196747
C        -0.34382814959379    1.69176740722414    3.47861455497694
H        -1.06559084724307    2.19289453636015    2.85506577612519
C        -0.30230058885132    0.31721147142306    3.58485005472195
H        -1.00897396872012   -0.27727656013441    3.02731448709461
C         0.63072590904871   -0.33159499961388    4.39789806865337
H         0.62404773336663   -1.40901498209004    4.44526854277859
C         1.55673022269795    0.37121154067240    5.14235052455318
H         2.27308841756974   -0.12900009517922    5.77387841935478
C         1.52004643872303    1.75294319023595    5.03848795942510
C         1.79761774988343    3.93000121304385    5.16482508177944
C         2.30819228793937    5.28070792913372    5.52680533472234
H         2.71173397275352    5.28362314522230    6.54735495381335
H         3.11366549491614    5.53746024330482    4.82871749887746
C        -0.76959598280836    4.10634006641692    0.73001323694100
C         0.13096156568418    3.08934481200686    0.43484077016462
H         0.95919654673839    2.87979097632781    1.09244635799879
C        -0.07852351314090    2.38463081276672   -0.73155028467612
H         0.60017760921670    1.59004015670743   -0.99868567378110
C        -1.14667655711173    2.67403345135510   -1.58588793921612
H        -1.26627502305369    2.09452500143632   -2.48765373426747
C        -2.04403455650973    3.68658780211051   -1.31200464706869
H        -2.86056759993530    3.91543271887956   -1.97775232734343
C        -1.83690068201415    4.40124219926889   -0.14217143185426
C        -1.84943470141474    5.76987110544114    1.57806921082781
C        -2.20528721099204    6.87060460617157    2.52069319051026
H        -2.93608080651646    6.49286854007165    3.24501692692676
H        -2.66718868471882    7.70201867917761    1.97145286800059
H         3.03216778887656    2.62217256368483    6.26642274520361
H        -3.30706569469888    5.93310223607897    0.05704565602423

