40
CSD_code = GIWLUV | q = 0 | S = 0 | Stoichiometry = C13H23ClN2Zn | MND = 4
Zn        7.33211263386705   10.22416173222772    1.62359880783205
Cl        9.12112954791435   11.47069440815015    2.20477881505320
N         7.33517676736380   10.78558171448976   -0.59903187396793
N         8.44282775498446    8.37795725079796    0.78255299753067
C         5.56248430857780    9.88937966955248    2.49066646589441
C         5.24547360888405   10.40757385026558    3.74546423949622
H         5.97570990217252   11.00280500076580    4.27774107148222
C         4.01461645163833   10.18386679699079    4.33963008935676
H         3.80808858237425   10.60390327066284    5.31485153972692
C         3.04093231149800    9.42842750081125    3.70198863314841
C         3.34152128380135    8.90374270781657    2.45316003393771
H         2.60197773882149    8.30946214624639    1.93232639827112
C         4.57464045111968    9.13149629761575    1.86622237110110
H         4.76151905783988    8.70216449568214    0.89020707929161
C         1.69773060029815    9.20737497090373    4.33040413832361
H         1.77020844231606    9.22246387876855    5.41570595007230
H         1.27343786912948    8.25582590069311    4.01694801024914
H         1.01040160495613    9.99879012909407    4.02800363837169
C         8.35456137590789    8.51966480257895   -0.67145107578843
H         7.40077367455477    8.10047934419683   -0.99860232178260
H         9.15585082284779    7.95103863427670   -1.16713424513262
C         8.44370353706172    9.97968255191896   -1.11119768662744
H         9.36621128201947   10.41059638396644   -0.72043081638150
H         8.47967140478614   10.02089269844023   -2.21113629539745
C         7.65819229524015   12.20367890421023   -0.74234734027427
H         7.85660198743915   12.46451413478597   -1.78956914204232
H         8.53112349656557   12.43911297745212   -0.13804239604524
H         6.82293805050353   12.80093896260075   -0.38096677778005
C         6.10142176928844   10.51124018516027   -1.32594268732978
H         6.19930574742885   10.76617088576979   -2.39000352317552
H         5.29347362109250   11.09962208298459   -0.89525198018976
H         5.83204630299842    9.46153329337191   -1.24304295867278
C         7.83499162492596    7.12049057658875    1.20637007715677
H         8.33481349616331    6.25659939386036    0.74869765902866
H         6.78075706375846    7.10542872276115    0.93688326805832
H         7.90690512986987    7.03333895527923    2.28869589399320
C         9.83788556341295    8.39790936121179    1.21306124542390
H        10.40857386878069    7.58169146577350    0.75059619172457
H         9.88146761342663    8.29433676606233    2.29510596474663
H        10.29484135436497    9.34946719520790    0.95809054130164

