45
CSD_code = GIWLOO | q = 0 | S = 0 | Stoichiometry = C18H17N5O4Zn | MND = 6
Zn        4.08269734000544    2.30190052244693    2.50042031158602
N         5.58795355794650    2.76853084661193    1.10546939841450
N         6.90881647221633    2.25292857342027   -0.79401382654754
N         6.20871956626107    0.61075806118424    0.63093499119245
H         6.58519991994866   -0.05717314456213   -0.01735572675224
H         5.63801154912923    0.31774379976593    1.41773459537092
N         4.00399385554988    4.39147946982588    2.48951165201606
N         7.77168627766084    5.22334866584402   -2.58360092362754
O         5.19861646500693    2.24534923574455    4.22916638353491
O         4.79259139019389    0.44460886473386    3.07438445774529
O         2.14444134362485    2.12089401165880    3.07953087590748
O         2.76052822451425    1.79004480235501    1.01831948289042
C         6.22365646185048    1.89843601017141    0.30165094905387
C         6.95875989274962    3.53733201276675   -1.10315500437309
C         6.33026939585861    4.51048413689051   -0.31782086941425
H         6.37989986609691    5.54106933866410   -0.61816813426213
C         5.63957442366481    4.06468936056340    0.79881936358275
C         4.90801525700613    4.96887109678531    1.70177741584662
C         5.13623938081687    6.34247567802144    1.74636146522532
H         5.88741069971021    6.79528825420481    1.11977074912518
C         4.39604363580270    7.11288343147055    2.62735428324566
H         4.55852654434030    8.17913414621569    2.68646896974765
C         3.45393501574039    6.49497435877000    3.43446162538481
H         2.85972535161350    7.06199395273088    4.13306967723022
C         3.29656301626875    5.12065764204234    3.33163817914055
H         2.58474363259593    4.57488292160679    3.93387133613933
C         7.70285992178023    3.92153611245969   -2.31075449527202
C         8.30227933038773    2.95445711821508   -3.11739846835184
H         8.21140035220361    1.91625569888388   -2.84449614666469
C         8.99343879473469    3.36678277974568   -4.24275825590117
H         9.46905337042375    2.64499702488507   -4.89099562184407
C         9.06265475007243    4.72253050177735   -4.52488266967488
H         9.59076750809096    5.08773185420066   -5.39179585279142
C         8.43140238882727    5.60517723341101   -3.65835866609995
H         8.45703397007896    6.67334356095799   -3.83258813767039
C         5.28392467428617    1.01161704149529    4.08295225023516
C         6.02276045841768    0.17842681743598    5.10705560234853
H         7.08359032417933    0.19446208061124    4.86431969415143
H         5.66639997712482   -0.84661715821185    5.07833760356515
H         5.88533145537367    0.60653731486607    6.09509257824640
C         1.87601991857040    1.79270287205518    1.90237372964251
C         0.45969608242044    1.40125352226888    1.54187722744747
H        -0.21459190475452    1.65499696590900    2.35382903807955
H         0.43261614183360    0.32796766233806    1.36786369587606
H         0.16504394977555    1.90435494676094    0.62482521727118

