85
CSD_code = GIWNIJ | q = 0 | S = 0 | Stoichiometry = C30H47N4NbSi3 | MND = 7
C         6.19843752408501    4.90104249502566   20.66619266902333
C         7.13888764118682    5.45369635748253   19.94405096076753
C         7.26125441079035    6.39357325127193   18.85209082016480
C         6.21728772282806    6.61042264019279   17.94868198144869
H         5.30071363915778    6.05405179421930   18.07015268468948
C         6.36323983946381    7.51345024022489   16.91309059045968
H         5.54989450269767    7.67209086303331   16.21921029868162
C         7.54562385620262    8.22056497018293   16.76152017308532
H         7.65375410090973    8.92931160187692   15.95363662452975
C         8.59179315356352    8.00980447632515   17.64693825108852
H         9.51675971681422    8.55560858936429   17.52511328306015
C         8.45577078304432    7.09925816329235   18.67617759573712
H         9.26823700934892    6.91304690018083   19.36864936905328
C         9.66971879193456    3.77135531412908   19.71226781765456
H         9.94764537218967    2.71177553711237   19.68034598415761
H        10.58151420730152    4.31971517419315   19.98897185576024
H         9.43218793406433    4.06266416791713   18.68609790596639
C        10.00022351906408    4.72876758494540   23.11469414239166
C        11.02448010108765    4.98805831095703   24.04532910419521
H        11.20864227102641    5.99983520412772   24.36482177960978
C        11.77262416782171    3.93395522549535   24.51494618450498
H        12.56289014919270    4.10717382114442   25.23184603778899
C        11.51329379173837    2.64277301212013   24.06533295310949
H        12.08580293249870    1.80322459771611   24.42620822782234
C        10.50559326538731    2.44991081166033   23.13038636996152
C        10.18007936782980    1.08314706753082   22.60694402049437
H         9.55196277152340    1.16032991109043   21.72016196020010
H         9.63648708914430    0.51797392166357   23.36552365227564
H        11.09209816833074    0.53888561023220   22.36808219460453
C         6.89468475019664    2.02872439630314   22.45987116708794
C         6.46971448182295    0.85038391832537   23.10773296746470
H         6.39774779881747   -0.06543547361538   22.54516066896196
C         6.17479463985649    0.89956253562098   24.44846567184361
H         5.84851703994828    0.00885383025330   24.96691147346514
C         6.30432448982111    2.09979958767254   25.14558806427583
H         6.07816536082263    2.15704183645405   26.19859920482970
C         6.72308985987940    3.22636095583531   24.45614002888410
C         3.71848916565692    6.79108570028253   20.86104571811963
H         2.63653361659924    6.83822673248585   20.78140621579112
H         4.13695000010917    7.36727415215589   20.04195144817492
H         4.00090919001965    7.28826084914182   21.78386397854179
C         3.81030815815321    4.12082776553309   22.45943218234945
H         2.73163248286679    4.11337469881697   22.58727821554563
H         4.24075199420084    4.62265414030463   23.32116662182085
H         4.15420276636687    3.09030689996439   22.48164032654507
C         3.49874399973050    4.04553478494356   19.36943567588707
H         2.48069090728364    3.76395012795839   19.62311706124222
H         4.04356345359905    3.13925443979250   19.12406840063712
H         3.45055075843128    4.65446452876457   18.47186000555176
C         7.35874051265034    7.84843102472164   22.24121734917893
H         6.58307149984987    7.12076052077566   22.47397811107972
H         7.38215819241199    7.95817825706286   21.16154377004259
H         7.06394633928847    8.80471561526146   22.66071994285863
C         9.11411773630068    7.69747411414849   24.80246074110525
H         8.95290131675834    6.81748154573504   25.41731853667015
H         8.35192379662008    8.42359112125251   25.06655931407391
H        10.07226582715318    8.12318257549921   25.08551245853440
C        10.47213960426310    8.28328543193894   22.08215899207634
H        11.44975485582558    7.92860584621240   22.39754270678472
H        10.40586552476687    9.33634613670702   22.33680830407346
H        10.42957373526254    8.20572955141083   21.00012748717065
C         6.94366421753074    2.13365697288128   18.28981513923092
H         6.67071369066006    3.17030790567810   18.48116692200282
H         6.28865073357299    1.74153869220964   17.51865170922811
H         7.95198463655711    2.12779880065441   17.89006356442241
C         5.04422327410821    0.42840890682942   20.09335501517554
H         4.44931395738782    1.08229465276857   20.72372320826362
H         5.03159357114028   -0.56077867734163   20.54007683149189
H         4.54451185206542    0.35066908009313   19.13322583691594
C         8.01752706396817   -0.41067816677183   19.74927162648404
H         8.05645801075542   -0.99179332244531   20.66639786557799
H         9.03173442119183   -0.10068926150023   19.51413313566916
H         7.69065209781560   -1.07463568005103   18.95544715983956
C         6.88718361663473    4.55269110736674   25.13792469452705
H         6.98202321896682    5.34161530553748   24.39079896991654
H         7.78739947814279    4.54286276414719   25.75436517121446
H         6.03785871498290    4.76062710751156   25.78637800008790
N         9.15471723656417    5.60822998286293   22.56524785050377
N         9.78424274889497    3.46783499639393   22.67509209342814
N         7.25889644542593    2.16623727264470   21.18261288796740
N         6.99363217136435    3.18515115471071   23.15649860743013
Si        4.33211162367642    4.97353431079472   20.82723728400016
Si        9.05568548742525    7.29984304711610   22.92094425296974
Si        6.83307057403824    1.09795327132631   19.88986819594571
Nb        8.12692950156596    4.17236401420774   21.33945567474902

