29
CSD_code = GIWSUC | q = 0 | S = 0 | Stoichiometry = C7H14AuCl2NO2S2 | MND = 4
Au        6.83205680406405    8.61389319934277    5.53730218336156
C         4.55525433060122    6.91153689445372    5.66058652336090
C         2.18691154516745    6.65661773451539    6.00223162509405
H         2.28783194984781    7.54999190996953    6.62169793650637
H         1.63919208674998    5.88364860182959    6.54324623723355
C         1.44167618154090    7.01839435774806    4.71675792687940
H         0.50290049974694    7.52850877267724    4.97852185761126
H         2.04995424681543    7.70770143781048    4.11151719571306
C         0.46366127291118    6.06411189997158    2.80527556565430
H        -0.51195364578399    6.52044268254239    3.00767582852728
H         0.32166166580595    5.09108777300764    2.34065536208449
H         1.02578024968047    6.71634689490831    2.12722117298750
C         3.61005462716008    4.70345902659061    5.48339219690205
H         4.47065775013479    4.51127153270421    4.83967627667521
H         2.69086271900572    4.38750498272460    4.98746245616460
C         3.78120737000354    3.93443831625340    6.79424777930995
H         3.99541021504715    2.88005237523615    6.56493842518705
H         4.63208011318959    4.34223291053460    7.36094832930901
C         2.64422814347899    3.34355007010284    8.76454025710951
H         2.80380943291030    2.27179220058444    8.60063970079574
H         1.68277770982935    3.49858134637061    9.24868448658793
H         3.44489042969507    3.72711534344307    9.40723424337660
Cl        7.17672605106669   10.84473934885017    5.77102103990975
Cl        9.04835172346216    8.30494813706586    5.15789680865717
N         3.50448527648333    6.12857796866097    5.71607955313184
O         1.17455092480830    5.83725279757790    3.99805242777646
O         2.59380979376342    4.04145344976188    7.54387815945999
S         4.48345546656734    8.60888790658978    5.88719119124880
S         6.14441506624630    6.34756012817210    5.35532725338434

