72
CSD_code = GIWXOZ | q = 0 | S = 0 | Stoichiometry = C21H45ClN4W | MND = 5
W         3.33585130720150    2.80375880560027   10.23799252550941
Cl        2.83674714811475    4.18705624977027   12.12755074128116
N         3.77734701283079    1.56546987429511    8.54828872928018
N         2.29175108273886    3.74483077915677    8.83408522293421
N         2.61757649811416    1.06667546927879   10.88191990593879
N         5.31284063024884    2.99191037070871   10.17546352435052
C         2.63364514846716    1.65792602127297    7.63806591321812
H         2.87912796350231    1.25130679803824    6.64507691452357
H         1.82408322187139    1.06384451577946    8.06891760067620
C         2.16624364703328    3.11682962903077    7.53717968671791
H         1.11559599429963    3.12854609280595    7.19421806526619
H         2.74707003417562    3.64107472620903    6.75872437408340
C         3.96305723987231    0.20329552622648    9.05329279710308
H         4.93773438176427    0.16770761613818    9.54602264023981
H         3.95513457311080   -0.53165088890282    8.23390327843163
C         2.88038937868056   -0.11709069608944   10.09342900679359
H         1.97542751639273   -0.49296354156556    9.58540899100689
H         3.23781665077069   -0.94482970779522   10.73275039159456
C         5.00110325607309    2.09210879526145    7.94002289715894
H         5.42873503001450    1.37793395800344    7.21982328789569
H         4.73322169702487    3.00782054524830    7.40733942783128
C         6.01660981139368    2.44570037574257    9.03596601561537
H         6.73513113239173    3.18006620413857    8.62850011578007
H         6.60926243001931    1.55205441875739    9.29756221660740
C         1.69130302778613    5.05383096239423    8.93313449867248
H         1.31840220411212    5.17303330879800    9.95924052613697
H         0.82893785567440    5.12901644246837    8.25102505363182
C         2.63671501781884    6.25838667827528    8.66117746851183
C         3.83436714501232    6.17703733716631    9.60605843851826
H         4.27530478530890    5.17088393383922    9.55838557343015
H         3.52155788920729    6.36176033717667   10.63188891341203
H         4.59355559832620    6.90808732725194    9.33421582677986
C         1.84660115520184    7.54089790285794    8.93475682167401
H         2.48543964420639    8.41262989129369    8.80982044335688
H         1.46230996039132    7.54115975312898    9.95171163382802
H         1.00639153337968    7.62957472290583    8.24854818000882
C         3.13266585314932    6.28268714398461    7.21272241841938
H         3.85725642896584    5.49057489448040    7.03699359620458
H         3.62388392386554    7.23197213469991    7.00486389481213
H         2.30547617059690    6.16919565216831    6.51411760880816
C         1.77455921284115    0.85135618702418   12.03371804059950
H         2.09615768760011    1.54999132100801   12.81765023985253
H         1.91123108472116   -0.17225882317031   12.41870281164909
C         0.25338415904350    1.09417759898381   11.81928366011704
C         0.04263006846323    2.51241396022554   11.29181459090459
H        -0.98845149677687    2.65987614059799   10.97582744453896
H         0.70702915667130    2.69048856005148   10.43412424357804
H         0.28071528939082    3.24306809014322   12.06236026315347
C        -0.43832662064340    0.93754306165767   13.17614133605715
H        -0.31934553269003   -0.07604972028362   13.55475210257237
H        -1.50197364122948    1.14759317875228   13.08509049607340
H        -0.01394200859564    1.62802203679442   13.90076927157666
C        -0.35451648658708    0.09019467649469   10.83578128024397
H        -1.44117603391290    0.15437246872709   10.86444712430556
H        -0.06852338925290   -0.92902134792225   11.09027460498902
H        -0.03791081544084    0.30412364512967    9.81714932798698
C         6.16228663942441    3.56028584484792   11.19494040296350
H         5.62322469605813    4.40376649617264   11.64679933425719
H         7.08632642237581    3.95520882369691   10.74252788267242
C         6.55603983392813    2.60906323231115   12.36064173290734
C         5.28639733863633    2.06207216186292   13.01057355778882
H         4.75659672403808    2.85488149747874   13.53497354834595
H         5.52315886786745    1.27060328957613   13.71926909529681
H         4.61907530881792    1.65852139933370   12.23551085378599
C         7.34993852492982    3.42857495425134   13.38146229397418
H         8.27355982920708    3.80093921477784   12.94232088182286
H         7.60266576816837    2.81582523781466   14.24418176174328
H         6.76478941271927    4.27803937713455   13.72470126014839
C         7.42359374994838    1.44247158401564   11.88017645230158
H         7.83971735229629    0.91301256651514   12.73586663228611
H         8.25001075752482    1.79621735185591   11.26619963576868
H         6.83380716134621    0.73091557413937   11.30640266969528

