117
CSD_code = GIXBUL | q = 0 | S = 0 | Stoichiometry = C56H54N4OsP2 | MND = 6
Os        3.62053638942964    3.07514235245251    9.67393081454965
P         1.36250636468389    2.53996088609502    9.63921128947058
P         5.86054840325651    3.72529452011352    9.58447624351287
N         3.01822110664500    5.75220062419664    8.13528525512275
N         4.10025770152783    1.21728137814091    7.17726674892680
N         3.40752321095117    4.07309188040892   11.47219412460009
N         4.12088515550281    1.59433535173989   11.03270660980726
C         3.24280838692133    4.72061662867892    8.60241247714286
C         3.90212064629837    1.95189670114322    8.04855979771375
C         2.93533901073452    5.30619972807981   11.65998880600548
H         2.64659269462849    5.84486247631109   10.76697467800637
C         2.82129772236812    5.89392655349346   12.89677741124412
H         2.43592969388857    6.89859368649696   12.95475478026154
C         3.19411769490694    5.19145016899017   14.04918768140997
C         3.68583161481978    3.91402331990436   13.84907652516445
H         3.98167895720571    3.30280285490337   14.68436047507946
C         3.79982752629963    3.38353201708576   12.56303965652869
C         4.32816388518511    2.05172505955831   12.29091044549921
C         5.04396340407356    1.30678906090525   13.22368439510841
H         5.24104000285728    1.73964489062085   14.19151230021694
C         5.54287600387691    0.05008627998688   12.91059541341556
C         5.21050815837269   -0.44397031186847   11.64789257954419
H         5.50821939980102   -1.42697809757167   11.32782039896612
C         4.51468711438317    0.34964468495723   10.76275244619918
H         4.27733723528484   -0.02038429695227    9.77497488700576
C         3.05608681401507    5.83422810491391   15.41617570350915
C         1.58311260943273    6.19013608697835   15.65766260721452
H         1.20764776816595    6.85706993044469   14.88661238130375
H         1.47246570603229    6.68245801351591   16.62158119034105
H         0.97261288092724    5.29039973650248   15.65767656847556
C         3.90370062070974    7.11328232617317   15.45352182555654
H         4.95307562876735    6.87543809936362   15.29804590607183
H         3.79908270137293    7.60065447750805   16.42062380484183
H         3.59629096526064    7.81368491179717   14.68206037588278
C         3.52189324844241    4.91409940095543   16.54769263265723
H         4.57294581451789    4.65577693247325   16.43589696681764
H         2.93109126077859    4.00096644930352   16.58042972233554
H         3.40276544897565    5.42370312492883   17.50149612743056
C         6.41647772005539   -0.69457117896234   13.90072630903240
C         5.62301306627950   -0.95396584438616   15.18880719024638
H         5.30367570736035   -0.02453554713930   15.65350227596716
H         6.23844368612088   -1.49617527706437   15.90318774635925
H         4.73828731407389   -1.55005105145738   14.97359668610578
C         7.64736110267456    0.17183811855967   14.20675671170414
H         7.36732531354009    1.10937600389066   14.68057041503454
H         8.18236632684329    0.40036557637534   13.28640784904404
H         8.31983416020943   -0.35833573706320   14.87749721761148
C         6.90132697223455   -2.03593322203934   13.34687548699848
H         7.47953281226590   -1.89225784733143   12.43677956001125
H         6.06545776424913   -2.70001154461058   13.13871954529305
H         7.54079555050932   -2.52181029825154   14.08082438949728
C         0.81984813450967    0.80089837921532    9.87093198694285
C        -0.22798806978871    0.40188546251886   10.69330391526841
H        -0.76789222701165    1.12555498094733   11.28784732156419
C        -0.59275193186469   -0.93190391951217   10.75416163126289
H        -1.40653869278079   -1.23292983796172   11.39882109804712
C         0.07274616404013   -1.87618767353933    9.99120556813115
H        -0.21632912791525   -2.91569720849495   10.04544774619371
C         1.09980239647006   -1.48055465085131    9.14986532409820
H         1.61082941123097   -2.20908964101124    8.53771314637724
C         1.46871879797287   -0.14991186764693    9.08663521112445
H         2.25430027985781    0.17024420141753    8.41539279223851
C         0.48162786035155    3.42334598811728   10.96677247466429
C        -0.13508288932510    4.64489265074892   10.71648593590327
H        -0.17312901650220    5.02180167421618    9.70376101321493
C        -0.69124256813782    5.36703202552940   11.75682444328507
H        -1.17959614353505    6.30919096426146   11.55482567983557
C        -0.62252738723716    4.88746581406295   13.05441133944175
H        -1.06923132990357    5.44724165034416   13.86302105152691
C         0.03022042654652    3.69325598907607   13.31578186337263
H         0.10115722321964    3.32156935376395   14.32873503719702
C         0.59159576868051    2.97124134199579   12.28073066719256
H         1.11625259668542    2.04527881016141   12.48675406438743
C         0.32512216747698    2.88698286439142    8.17610081784533
C        -1.06095569758950    2.78251411559734    8.26858037068699
H        -1.52165703578646    2.53648369774618    9.21615267268747
C        -1.84589405265532    2.99878675417906    7.15294950094834
H        -2.92127667105276    2.92341592287434    7.22906231845869
C        -1.25481720025607    3.30852369869511    5.93745361448734
H        -1.87241470602411    3.47681315704740    5.06721905243321
C         0.12304437121694    3.39780399093955    5.83996702618813
H         0.58513574091582    3.63437058759469    4.89349079466046
C         0.91528046405395    3.18504792039231    6.95512259246873
H         1.99249746200003    3.25354822739577    6.88964812310272
C         6.16701642165638    5.06758073538219   10.77752587195536
C         6.43508910848282    4.81308060882459   12.12060489608026
H         6.57456363004425    3.79559404307022   12.46301506522237
C         6.52737303455213    5.85789536560444   13.02152107216660
H         6.75986994168899    5.64981888696935   14.05707076274757
C         6.32254201502467    7.16112157712156   12.60101682452802
H         6.39909938028811    7.97577099510054   13.30636161498265
C         6.00661206351862    7.41611314139307   11.27603338484552
H         5.82275786224875    8.42906206149454   10.94974443568465
C         5.92212291933479    6.37701283210386   10.36906008258971
H         5.65566278298505    6.56692263909728    9.33828893204577
C         7.16846752653997    2.48727205756741    9.94167890672716
C         8.28230627812653    2.69756580478912   10.74710445418596
H         8.45018567673838    3.65561127450019   11.21770716023596
C         9.19854344314886    1.67885380856849   10.94356467553969
H        10.05855835061125    1.85049934081141   11.57597613038861
C         9.02353010033556    0.44942654891770   10.33055837735645
H         9.73935820687812   -0.34303823777908   10.49595594528971
C         7.94103719882558    0.24908973441686    9.49008880240377
H         7.81351406413318   -0.69689641406480    8.98469425186858
C         7.02167930684905    1.26242401196052    9.29381214137963
H         6.18669790131726    1.12240633823706    8.62009900102090
C         6.60032250430409    4.41893214274895    8.06538035645672
C         7.85392784243385    5.02269512412904    8.12932882741699
H         8.36609609441858    5.10359978563355    9.07904045578708
C         8.43758565032248    5.52555765635628    6.98313218958705
H         9.40763733536198    5.99896790028485    7.03656935742510
C         7.77994512070290    5.42252466639265    5.76685416628935
H         8.23912394651258    5.81810727488875    4.87258923536872
C         6.53890237306439    4.81341019659748    5.69977268738313
H         6.02650296543175    4.73021975959494    4.75325827347953
C         5.94736289829786    4.30895184052652    6.84525934195189
H         4.97766509048278    3.83303293143723    6.80238268842771

