43
CSD_code = GIXBEX | q = 1 | S = 0 | Stoichiometry = C20H12Cl6N4Rh(1+) | MND = 6
Rh        8.24134943626561    3.67668643368705    2.40914886600221
Cl        9.87319704153222    5.25258469298374    2.52718811007367
Cl        9.39245834227705    3.99428923369816    8.74935102732386
Cl       13.59955105837822    0.16674928692899    3.50713517499861
N         8.38968146096180    3.67943609648379    4.39461109655417
N         9.77491914484454    2.32989583287200    2.64140061479018
C         7.61732920035822    4.38492343805540    5.21833843651577
H         6.76575531942723    4.88328233224842    4.76961776521464
C         7.88030582284268    4.50985397392082    6.56858253780509
H         7.23434281261344    5.10053515158250    7.19667693646395
C         9.00251843711994    3.87173346188190    7.09169064673202
C         9.80817708057391    3.12962800781837    6.23304588142153
H        10.68107908239227    2.63459604400096    6.62242158856294
C         9.48233219580462    3.05554140479868    4.88470917323445
C        10.27281735446535    2.31400090252116    3.89365142309962
C        12.13802461844357    0.98417585663211    3.17644264466970
C        11.60786964133639    1.00851496384239    1.88737998400570
H        12.10969454108279    0.51185612365752    1.07379685579092
C        10.42889459504718    1.69433600903034    1.67436954062598
H         9.99489344047278    1.73526287407769    0.68382702789043
C        11.45304025208504    1.64310574586254    4.19175573927583
H        11.85427963383491    1.63890166501277    5.19061221987569
Cl        6.60971653284649    5.25280701506155    2.29108322355640
Cl        7.09113458360680    3.99388957271530   -3.93127335761432
Cl        2.88345814628596    0.16654704800370    1.31056205595483
N         8.09323895254607    3.67949083755202    0.42366351527750
N         6.70791341473769    2.32983949605674    2.17672534010079
C         8.86562227624900    4.38503990144742   -0.39998592828880
H         9.71705550412311    4.88354414260866    0.04884237130316
C         8.60283921591216    4.50985813736039   -1.75028092734666
H         9.24882689603808    5.10058300379401   -2.37831312707098
C         7.48079781996492    3.87154991665597   -2.27353029234967
C         6.67510178888655    3.12939916879622   -1.41496280546954
H         5.80233701867275    2.63421250850139   -1.80444922999016
C         7.00074923807132    3.05543012186427   -0.06657148076961
C         6.21018991285254    2.31387171399091    0.92440745553861
C         4.34489863243104    0.98406144755415    1.64142911443228
C         4.87482020618069    1.00856734586276    2.93058613790683
H         4.37285711339465    0.51199663485721    3.74413736171247
C         6.05376995695961    1.69440594137738    3.14372194771466
H         6.48758052852666    1.73549297171816    4.13434076241837
C         5.03002854108533    1.64291974118514    0.62616934314232
H         4.62895320843370    1.63860380148894   -0.37275477106184

