75
CSD_code = GIXFEZ | q = 1 | S = 0 | Stoichiometry = C26H35Br2Cl2CoN7O2(1+) | MND = 6
Co        4.69060736341181   18.16958032460761   17.39798301203598
Br        6.55787414580515   21.50177999248998   20.06348901211866
Br        8.58465341270891   15.53869800807554   17.37021425268454
Cl       10.46527913929676   22.32431147203249   16.20395851893052
Cl        7.99451073469917   14.74993322878856   22.80405404637301
O         5.65763661554889   19.63150297209971   18.06438958090489
O         6.14940776199384   17.04867064027019   17.76630792467322
N         5.56968796324204   18.28253156598447   15.61539588950650
N         6.43240080255381   15.23363450409385   13.59012149390638
N         4.00829826335196   18.06860446511570   19.13137708888641
N         3.01448422894392   19.43476229231554   16.96436094660265
N         3.65443960485652   16.70786752575279   16.91759859963976
N         3.89577698979167   15.56399501565474   16.92633906253574
N         4.03839239303006   14.44101326251202   16.82196732829369
C         7.25190176287566   19.91683839749298   16.30861324489923
C         6.69954929821740   20.18225577493981   17.59562641394054
C         7.36897490699747   21.15846673255391   18.38859551543901
C         8.49773117444205   21.80655798247934   17.98103619876772
H         8.97869982248400   22.53619719945773   18.61369045397667
C         9.03188867653713   21.50804454842212   16.71555077525293
C         8.42405986286898   20.59207586727983   15.89963241269924
H         8.84240082479326   20.37908102958482   14.92825840527408
C         6.65479167871548   18.97836419281456   15.43863790896185
H         7.19044922873785   18.85230920983344   14.49355029385976
C         5.31229154491785   17.30798232083364   14.56194910896160
H         5.54435852391380   17.75497784900431   13.58353679153107
H         4.25593695602174   17.04220751402774   14.59302813594359
C         6.20624888180579   16.07537204265257   14.79014052668661
H         7.17925396329751   16.42836679409618   15.13708723973732
H         5.79594988901908   15.44574764421800   15.57750444658155
C         5.17616745548694   14.66264612818229   13.00950103367550
H         4.46039901761640   15.48047079135547   12.92199612414078
H         5.41016914722503   14.31163271506598   12.00250456794849
C         4.56610461014275   13.52908627365304   13.81555337462139
H         3.59565100486100   13.29521247599335   13.38622691980170
H         4.40479728427600   13.79217838214334   14.86024041230771
H         5.16748275237470   12.62683250474204   13.76862348872184
C         7.46370765074316   14.19929589223709   13.89281993780763
H         8.30934498955903   14.70115376307371   14.36703953998044
H         7.04343711557491   13.50758089986739   14.62123855724646
C         7.93421430208832   13.46819775244680   12.64821904250072
H         8.76387292045792   12.82279863558284   12.92104558924120
H         8.29216844897489   14.16365132052642   11.89196164445542
H         7.15978098878041   12.84149260492407   12.21611884785325
C         5.77090641425266   16.74681915372068   20.12452188389592
C         6.48581886612597   16.56869936997321   18.90989969010376
C         7.66133505408557   15.78685199790307   18.99381808065933
C         8.13199545878488   15.23313099999554   20.15197993864222
H         9.03961387405639   14.64927703467874   20.16174775838795
C         7.41135562790311   15.43923348474432   21.33292763318553
C         6.25251614754450   16.17872266980673   21.31615240213541
H         5.70071011333773   16.33069955445179   22.23026917803483
C         4.56719330745933   17.50925540721064   20.14313009828070
H         4.09531119865428   17.61436803762783   21.12032075144809
C         2.82798697265586   18.87500539038303   19.35284176815596
H         3.14264907792815   19.85492536209154   19.72921890178392
H         2.17525291047226   18.41563989457222   20.10314811537033
C         2.08671026043449   19.01498654409968   18.03170153083711
H         1.26316265374397   19.72799794622127   18.14651709600484
H         1.67944873635343   18.03967630104821   17.75820639268304
C         2.41517335737721   19.13278936854394   15.64814760126616
H         2.26449763178738   18.05259956566404   15.60644524940527
H         3.14240490030755   19.40456597733857   14.88286808212281
C         1.08317803602379   19.81806871745188   15.34332734945995
H         0.30849380440257   19.52120432888698   16.04399630493848
H         0.76282012358560   19.51619459915809   14.34935364578826
H         1.16623668093885   20.90063353415665   15.34934555992576
C         3.26660773200627   20.88718425136761   17.11068076575636
H         2.30758350817096   21.40525594048838   17.23238644965006
H         3.83952810220782   21.03294877189366   18.02646416786993
C         4.02880149329697   21.53405681213527   15.96187307573723
H         4.91979526749274   20.96695590094226   15.71126169198453
H         4.33938959150692   22.52926332147094   16.27110269988735
H         3.41627400670129   21.64094946103216   15.07058662359938
H         6.83031498736716   15.83897979163224   12.86367580310455

