49
CSD_code = GIXFAU | q = 0 | S = 0 | Stoichiometry = C25H18AuN2O2P | MND = 2
Au        3.91883362535720   11.38178648385518    3.80204110259724
P         1.99397263581708   10.31060627587859    3.46785141755318
O         4.58262372538260   14.22165007597556    2.97437687433299
O         7.12554517423574   11.13360437088257    5.08440400245728
N         5.60737452576679   12.47990319434646    4.01695933589354
N         9.48336530096005   14.91764963306891    4.49766260029269
C         5.56100257384651   13.74457839085562    3.51672563003542
C         6.82420182801152   12.18854554936939    4.57392420210216
C         7.67105378125824   13.41241805129356    4.41670164140354
C         8.96794595652681   13.72405855764892    4.77016431556208
H         9.61511452915068   13.02171334772772    5.27685659315424
C         8.74134172571311   15.81795192206328    3.88002850580072
H         9.23191371203285   16.76466394074604    3.69250373185139
C         7.42029944648231   15.61289638117720    3.47859724693151
H         6.84930424215908   16.37734627902326    2.97604834350797
C         6.89283060320319   14.37228884123266    3.76401859603998
C         2.13207903228939    8.67504700761683    2.69282167374420
C         1.33921724767093    7.58824362532169    3.04495844347694
H         0.60666253353275    7.68375868039094    3.83492915538928
C         1.50031033828806    6.38251108856271    2.38547417104604
H         0.88669330519520    5.53690304522130    2.65953945758661
C         2.44382738419939    6.25737707588648    1.37891006312339
H         2.56550924625547    5.31297264577399    0.86999221282949
C         3.23597461611895    7.33945917703932    1.02786286018889
H         3.97516903297316    7.23967033093124    0.24733145026151
C         3.08389351924048    8.54528869439767    1.68517187793859
H         3.70265957860396    9.39716027821281    1.43188911406020
C         1.03191239677343    9.99454270893069    4.97064267065404
C        -0.23838288609785   10.50904797994690    5.19792476597405
H        -0.72532897535497   11.10703415416255    4.44026707437421
C        -0.87431761278048   10.25053715006721    6.40056917789009
H        -1.86321114084725   10.64680845058041    6.57802597094586
C        -0.24688953767557    9.49131899633229    7.37390493766418
H        -0.74874705733493    9.29372640616916    8.30924476123488
C         1.02844373209091    8.99127057434119    7.15466923644642
H         1.52094931774445    8.40804924324289    7.91824075543497
C         1.67103576079735    9.24778035359052    5.95978059764107
H         2.67119617779767    8.87505953392011    5.77582313864486
C         0.86535926492442   11.19547721961641    2.35948846407906
C        -0.23693536379025   10.56039747865484    1.79165804534644
H        -0.42364887925146    9.51570276146936    2.00200474572351
C        -1.08158040870014   11.27045754432089    0.95975863113846
H        -1.93690140390004   10.78071568951739    0.51783447277391
C        -0.83078367044898   12.60788204448187    0.69087185559746
H        -1.49374006786527   13.15740804352426    0.03923469834510
C         0.26922612409284   13.23745830658259    1.24958955699768
H         0.46864002644732   14.27629960953583    1.03477471956604
C         1.12232864305839   12.53435901756742    2.08235751877247
H         1.99165634001868   13.01621378897809    2.51178958563472

