37
CSD_code = GIXHIH | q = 0 | S = 0 | Stoichiometry = C14H14N4O2S2Zn | MND = 4
Zn       13.27595932259476   -0.63387682209223    4.69532121544800
C        10.75460375249271   -1.64195744239909    5.96011215588044
S         9.36417588373085   -1.92849851144363    6.62989101932233
N        11.79299719971544   -1.39713571937757    5.45281639475890
O        14.55336529073752    3.64972903991829   10.05769482521575
H        14.93050286616858    4.15672477772311   10.78331511430762
C        13.21496223501912    1.17152341535608    7.06771950691569
H        12.16941144704906    0.90961421615073    6.99153453517446
N        14.01155125796381    0.67840085273500    6.12403575922612
C        13.67503785390327    1.96501839767151    8.10196851350642
H        13.00198840060934    2.34892788135589    8.85039968150273
C        15.02961761389361    2.26537930808457    8.17215879912201
C        15.59164726807399    3.10852202075558    9.28072444592289
H        16.25187252654420    2.47354869547620    9.89330132101105
H        16.21095032406613    3.90581701616880    8.84040776143779
C        15.31037541099150    0.96369156747069    6.18638856537596
H        15.92773744703280    0.53964499908945    5.40753809001698
C        15.85960131423839    1.74655025619800    7.18215768437003
H        16.91993001079191    1.94626978121160    7.18923770285695
C        15.79663726444666   -1.64401723028740    3.43024266580190
S        17.18641972715022   -1.93300572118800    2.76023961474669
N        14.75880595361958   -1.39761460972502    3.93817315913173
O        11.99759157036100    3.65046803877280   -0.66643720834989
H        11.62027060219202    4.15760364861434   -1.39186204922033
C        13.33680406855995    1.17182555892464    2.32288618351555
H        14.38247097881465    0.91039531198644    2.39916282604686
N        12.54031222474494    0.67806798332800    3.26632102631182
C        12.87650803350764    1.96543730454042    1.28882179043520
H        13.54948471863133    2.34993826337869    0.54062967782186
C        11.52179636496645    2.26518548897732    1.21854061001288
C        10.95949363565471    3.10848818122476    0.11023793506657
H        10.29959872271290    2.47346080848503   -0.50263756378379
H        10.33979986812406    3.90533462774925    0.55081913568826
C        11.24135737517205    0.96272889927302    3.20384556513591
H        10.62407891078168    0.53812936853518    3.98245393677117
C        10.69190607930077    1.74560530173993    2.20822158080149
H         9.63147647564299    1.94477504561924    2.20101802266281

