98
CSD_code = GIXMIK | q = 0 | S = 0 | Stoichiometry = C31H62N2OsP2 | MND = 7
Os        6.79640235496850   13.33196751802105    3.19775898984759
H         7.35205408592221   14.43878318886047    2.22916407888074
H         6.41769055457074   14.78187800981240    3.70737563806881
H         7.57961871436913   12.64711478404651    2.01555085899418
H         5.93035791494916   13.24299150974066    4.51236547900738
P         4.88068831438587   13.33415008071245    1.82836112952058
P         8.80343301241391   13.51220950395412    4.41998532099021
N         6.70281735660288    8.94225788446174    3.12477023334053
N         6.17790537863783   10.40336897303814    4.63753244885846
C         6.63790071728890   11.16390268866891    3.55897027589720
C         6.95615194816539   10.18997537724301    2.62965483618857
H         7.36379566290605   10.28805942171335    1.64405597044328
C         6.22885564638512    9.09551326300234    4.35531921862251
H         5.92735791511298    8.30121062333575    5.00920626144972
C         5.68894005181188   10.84387138444633    5.91843155164375
H         4.66248279401720   10.50257103219015    6.06823745922557
H         5.71363050940334   11.93115760201985    5.94973167842534
H         6.31372666526952   10.44580923147938    6.72083813947125
C         6.93190704735089    7.70952145062105    2.46069355936890
C         8.08547293506434    6.98303576826773    2.75829577016346
C         9.07002468694104    7.50096987152778    3.76181444469327
H         9.96406326771172    6.88377439021555    3.77312684016329
H         8.63909189469638    7.49892986242905    4.76341822274648
H         9.35563564733308    8.52483315216466    3.52293911253562
C         8.29688029629173    5.78442891296562    2.09600772216839
H         9.18666153306051    5.21260952694120    2.31613059485984
C         7.39519294311057    5.30635177757383    1.15439710261471
C         7.63551231080505    3.99617911614294    0.47063895420053
H         8.69832236088810    3.83412039530143    0.30721377535729
H         7.11961452937582    3.95562714726149   -0.48527067554485
H         7.26337157530981    3.18053733113153    1.09141504095422
C         6.26109573202837    6.05524174581829    0.87503845575128
H         5.55445531819536    5.69589539369864    0.14113997404927
C         6.01092773421841    7.25949446906506    1.51558104965864
C         4.79140749194848    8.06754725453619    1.19597679733785
H         5.07002167957524    8.96460203445517    0.64291909365396
H         4.28088593745447    8.38264952395803    2.10548787426279
H         4.09842869311512    7.49267086501779    0.58762235668958
C         5.13249851194683   13.30007493696813   -0.05452240592300
H         4.20657427033161   13.68487150387304   -0.50192088259883
C         5.41952853575193   11.89870512696208   -0.59095167628887
H         5.75466777042793   11.96726924569047   -1.62640563486790
H         4.55004528133188   11.24648944382235   -0.56763846689349
H         6.22091697610980   11.44831918185796   -0.00808137491426
C         6.29158652356145   14.19612741657954   -0.48700867821174
H         6.26590588767170   14.34079314017448   -1.56796640572508
H         7.23514772245282   13.72569365800793   -0.22319865883022
H         6.26502709450148   15.16684625753075   -0.00395929193302
C         3.66561869039605   14.77888526622705    1.91435791831273
H         2.83830083652949   14.54717327660599    1.23250504361797
C         3.12919610238510   14.92680696923579    3.33410306078434
H         3.96111055847889   15.01988703449662    4.02940187068359
H         2.52539589120208   14.07426573373252    3.62790717783058
H         2.51139628438291   15.82183695656883    3.41190516433897
C         4.30256164264686   16.09602177184305    1.48105808788564
H         3.65690597173450   16.92885041875628    1.76093017780824
H         4.44746202715458   16.13658506221696    0.40459479531882
H         5.26220819081490   16.22503901038362    1.98030163449234
C         3.67137984035800   11.87427635869932    1.95614973796610
H         4.30654384181686   11.04872367946005    1.61064151975724
C         3.27967333972424   11.56317907123438    3.40276819041695
H         2.29922751229594   11.96979087106201    3.64172202043759
H         4.00397579959222   11.99758699075591    4.08663010796583
H         3.23451722840737   10.48575860880950    3.57079555288649
C         2.41683651552156   11.92425252137149    1.08648890400371
H         1.93467513198336   10.94534302785475    1.09665166525572
H         2.63442084722464   12.18131407590658    0.05383738222176
H         1.70370497853569   12.64720101502885    1.47608443324461
C        10.40299062134906   12.86412048587623    3.66456906691230
H        11.18845084538409   12.93781311208907    4.42391625610917
C        10.21780508126226   11.40274593233123    3.26841149683381
H         9.50964345771541   11.34496253843927    2.44544845555125
H         9.82719290371757   10.80912669903354    4.09371657571962
H        11.16600427360266   10.97019362828698    2.94558714533876
C        10.80139608492275   13.67142950919041    2.43440059083881
H        11.52697770648894   13.11654266814050    1.83883692390515
H        11.25033553243112   14.62247093811466    2.70706993710133
H         9.92224074349970   13.86205458009756    1.82078722333589
C         9.28816409770570   15.24754354478861    4.99966651857208
H         8.47097407921850   15.47471034478342    5.69821873754208
C        10.61786792972586   15.39759554376597    5.73561814542636
H        11.45449705853023   15.07695656864022    5.11991616305890
H        10.63585452126240   14.84470275173353    6.66952462461770
H        10.76808601599564   16.45065676232898    5.97617948837840
C         9.21240846425157   16.29681666282031    3.89070467178736
H         9.13373369342125   17.28992273106490    4.33341688444838
H         8.33912174422828   16.12783924028690    3.26618774221871
H        10.09656936907908   16.27959858739522    3.26010884958390
C         8.83436321465232   12.54434936807019    6.05980322122112
H         8.27255449661307   11.64313707539816    5.77728290054560
C        10.15141481374131   12.06379610042483    6.67028254321183
H        10.81500307063230   12.88301418024382    6.92668920994273
H        10.68641220031434   11.38459748019422    6.01248003536896
H         9.92590731600843   11.52237305371405    7.59102690441445
C         8.01313529350045   13.28891003758394    7.11106874743602
H         7.68275257468841   12.60702670575468    7.89574944388023
H         7.13505074315787   13.74097738495109    6.65144841824125
H         8.60019903602314   14.07553608695101    7.57940647490159

