161
CSD_code = GIXMEF | q = 0 | S = 0 | Stoichiometry = C64H76N4O16Zr | MND = 8
Zr       29.47102698306025    1.37532809270134   16.11634316966061
O        28.50919000379445    0.42069999063662   14.37667771923882
O        28.14664703510644   -0.34391635453539   16.37009517889965
O        25.17730273651881   -0.52745323620996   17.23089964690192
O        25.78952364823061    1.19557920643705   13.11159285576260
O        28.71291511640221    2.26997035646888   17.89548839698471
O        30.53094302639019    2.95637534748973   16.95026292877028
O        26.17121009897765    2.43535875006881   19.44239789907440
O        27.55526468348889    5.39535239220233   16.35217152109798
N        25.32320036643453    0.31189763670497   15.13664318351759
N        26.70959097015280    4.05916849596927   17.96221435291235
C        28.11510856545331   -0.50764879337494   15.11813508383110
C        25.30259944114784   -0.73612560131891   16.05373866775874
C        25.59456595894683    0.21216357762832   13.78492291991855
C        29.04435521987923   -2.57337497440996   14.23885057862176
H        28.86357697524942   -3.51293718441268   13.71794420216734
H        29.55815263002163   -2.78621401383395   15.16967608623468
H        29.69449509610709   -1.94481734744830   13.63285577187019
C        24.54171636211320   -3.06140338965321   16.38378031001199
H        24.60070112836834   -4.09129420897031   16.03961857735320
H        23.49828037186790   -2.75478098603650   16.39247172093419
H        24.91873570080378   -3.00132783757663   17.40063491198237
C        25.01666016383748   -1.10585620834839   11.77475882209347
H        25.09133534141593   -2.07283462689101   11.28314639201964
H        25.55946352476836   -0.36741629969429   11.19165079947101
H        23.96962020496814   -0.81250602283449   11.80926537446241
C        27.71307134607094   -1.84345528498359   14.49147052802528
C        26.81580440856615   -2.64176524511558   15.43935664945876
H        27.22022790362046   -2.57783639455726   16.45101465658018
H        26.81246025859307   -3.69042913763601   15.12896059068607
C        25.36040916109014   -2.14558922449854   15.46856160152116
C        24.78588828529583   -2.13638810591636   14.05748187292155
H        23.73892213903818   -1.82217897803043   14.08222833421416
H        24.82144165344773   -3.14366826214291   13.63520837392472
C        25.59685909639783   -1.18405962160468   13.18983214894677
C        27.05708841135347   -1.64426048060599   13.11932429973908
H        27.09118128124885   -2.59221759871442   12.57583118048251
H        27.63788710285684   -0.90500389114452   12.56405361666350
C        29.71230620851543    3.03764442643584   17.90552980258002
C        27.51720837262555    5.08656433107378   17.52230414777819
C        26.81308272669952    3.42276033038778   19.20075744912413
C        31.45714499455300    3.83058126950400   19.40524153555481
H        31.72045854545064    4.46739686256984   20.24750726103316
H        32.05624695928160    4.10973080513573   18.54205409557753
H        31.68793855766938    2.79789760956174   19.64975545699896
C        28.19694279309468    7.35613514556295   18.20227517772108
H        28.77087783221485    7.95404404079482   18.90593975707839
H        27.16539252409578    7.70261291784727   18.21049294591693
H        28.60026639588550    7.50115044657312   17.20427753401726
C        27.01793729636716    3.85999450409395   21.61489621321532
H        26.98427145772386    2.78971187481691   21.79539040109985
H        25.99840103157770    4.23831355759615   21.64153979966744
H        27.58947974927653    4.33888702192801   22.40646794370158
C        29.96959522246359    3.98865928709412   19.05966515162670
C        29.74305851465949    5.43986213542856   18.60659439265861
H        30.27269730733073    6.09781478232510   19.30108468132928
H        30.18675369033810    5.56361795750902   17.61796652634068
C        28.27173020222656    5.87297115355722   18.58377897488320
C        27.64949815406192    5.63527870587416   19.95310254081168
H        28.22020544263312    6.16950423338931   20.71638805947025
H        26.62402098884614    6.01474238500531   19.97558738154371
C        27.65753529016173    4.14008084502392   20.24971197341846
C        29.10394134934374    3.61506997908229   20.27069171055534
H        29.58244711284447    4.02285213425894   21.16513711212619
H        29.08294706043738    2.52714914145530   20.35940952397523
C        26.00146037890206    2.17881630412579   16.55755863714937
H        26.80618022019054    1.57007539646556   16.95798075196835
C        25.11932133815547    1.64453333124641   15.63322667886636
C        24.02445581015499    2.37492815993225   15.17043043652604
C        23.86812657593293    3.67029452676849   15.63881420114988
H        23.02584200366919    4.24996835243675   15.28869107257319
C        24.74459394270420    4.24645378659812   16.54549413942367
C        25.81708501572169    3.47958140752369   17.00189782033271
C        23.03362987190473    1.80326267588735   14.20289235963404
H        22.09744973860953    2.35381399844584   14.25016015858253
H        22.83570322347942    0.75482623922585   14.42002700911828
H        23.42520362806325    1.87375830329992   13.18827858553207
C        24.52523402462364    5.65151659988570   17.01714408968903
H        25.23783391822474    6.31818715616209   16.53228669820005
H        24.66927578435506    5.72525404984133   18.09390319946192
H        23.51938710185103    5.98358955094279   16.77320144066873
O        30.43083531231567    0.41857956483285   17.85526655185648
C        30.82618715872715   -0.50884566055090   17.11335938296924
O        30.79520531210879   -0.34421426956902   15.86148714056842
O        30.23000639295992    2.26955204683427   14.33739659979147
C        29.23112162089580    3.03790754653782   14.32735501507406
O        28.41284166122717    2.95778399819178   15.28299574181697
C        28.97349089138936    3.98778038967192   13.17240052347721
C        27.48600528898506    3.82865007855936   12.82695442157743
H        27.22235783082289    4.46455578876308   11.98409692363992
H        26.88675363660271    4.10829802275253   13.68987129498792
H        27.25567343237801    2.79562560673476   12.58338535070372
C        29.19944844129947    5.43933219414856   13.62446710784516
H        28.66999780163464    6.09670014609273   12.92930543204576
H        28.75536170386203    5.56369715475706   14.61287748004981
C        30.67079844233205    5.87235021252858   13.64752708038372
C        31.42480734648315    5.08609287346659   14.70947812741264
O        31.38586470093555    5.39492417782146   15.87956876017760
N        32.23294239045968    4.05881207040718   14.27022275200346
C        32.13005265424431    3.42207549074519   13.03180374632927
O        32.77227849475205    2.43479645923910   12.79058932776442
C        31.28560036881389    4.13882618563399   11.98246671022182
C        31.92531827473510    3.85823152536758   10.61745075896681
H        31.95918843016765    2.78787119164638   10.43744191569578
H        32.94478655855528    4.23671760014980   10.59071304232719
H        31.35374430455606    4.33666565798893    9.82562438967006
C        31.29341603055307    5.63415107364514   12.27846408825752
C        30.74562368589352    7.35560898404634   14.02862290556233
H        30.17193047631713    7.95334948993194   13.32461433263102
H        31.77720514694728    7.70198292377785   14.02056839008894
H        30.34203336909479    7.50096596753971   15.02646627623071
H        30.72287074147892    6.16801160214650   11.51480498731677
H        32.31887209069049    6.01368527994606   12.25609587209600
C        29.83927522289489    3.61359073952077   11.96165378513447
H        29.36077037334548    4.02077706008892   11.06693205332446
H        29.86044600049676    2.52561128163897   11.87358090914389
C        33.12482336074521    3.47953880133612   15.23131701652893
C        32.94067874524802    2.17858828347021   15.67524230694619
H        32.13686982159678    1.56940574468103   15.27370900047525
C        33.82184412518873    1.64474347715185   16.60074902143547
N        33.61805773831433    0.31190130163266   17.09681728178080
C        33.64031127823402   -0.73585803058747   16.17947245206194
O        33.76699095632399   -0.52682829434484   15.00251849314301
C        33.58242134484863   -2.14547863987136   16.76420140270119
C        34.40240760236003   -3.06075653069537   15.84959551255234
H        34.34347903409883   -4.09075336146877   16.19344808207294
H        35.44573484721798   -2.75372379606111   15.84203466663687
H        34.02640292102350   -3.00058699649286   14.83237250643631
C        32.12716025066975   -2.64212250061734   16.79170222113015
C        31.22854544893359   -1.84494703886682   17.73929189451503
C        29.89767956895450   -2.57630336184326   17.99024564503094
H        30.07861726577754   -3.51444241734284   18.51367468600439
H        29.38661200423529   -2.79230425312333   17.05863306999618
H        29.24507617473051   -1.94747372496314   18.59329807061514
C        31.88320217566681   -1.64601558456153   19.11209353090430
C        33.34316307673533   -1.18476816524259   19.04296120780122
C        33.34513411094346    0.21159144822986   18.44818226594664
O        33.14878095617196    1.19469397470620   19.12156967504303
C        33.92203556421291   -1.10649965686504   20.45857757913100
H        33.84757907406704   -2.07364679093189   20.94989383971358
H        33.37818422769888   -0.36858278930782   21.04136747122098
H        34.96890338671422   -0.81241988914404   20.42509994416369
C        34.15549676987678   -2.13643645535820   18.17586428230263
H        35.20233493742974   -1.82171636472807   18.15225938732378
H        34.12000315548775   -3.14385990426348   18.59780550078735
H        31.84941317181652   -2.59425332739566   19.65509596353542
H        31.30138939267825   -0.90746456940058   19.66723855616057
H        31.72372809020839   -2.57765210332622   15.77967165708780
H        32.13057041217100   -3.69100401174017   17.10133955589631
C        34.91563707749619    2.37574161912435   17.06512511964144
C        35.07188210135000    3.67120526239445   16.59698548709041
H        35.91336523973174    4.25133776460242   16.94828369644088
C        34.19631256484534    4.24695407917138   15.68916837675805
C        34.41561225424062    5.65217998878357   15.21796761359386
H        33.70248692585439    6.31855712024533   15.70246094063139
H        34.27232489513504    5.72612351049939   14.14112449417089
H        35.42119588775046    5.98447581619353   15.46270271815513
C        35.90543332267728    1.80463001177108   18.03404309473840
H        36.84134322838243    2.35575951460580   17.98815053146076
H        36.10430683352635    0.75632386113166   17.81713940515483
H        35.51236633163593    1.87482426527748   19.04809984457110

