109
CSD_code = GIXMOP | q = 0 | S = 0 | Stoichiometry = C46H52N2O8Zr | MND = 6
Zr        3.85270581338871    0.29969337487197    2.18442944628692
O         3.41947249325117    1.85859396463524    3.56254009174498
O         4.92234341202644    2.19333071587456    2.04545689551667
O         5.17343494954118    1.07668633295095    5.75523010591260
O         8.01443623750025    2.26375437353062    2.47313733996268
O         3.76835493450682   -1.48019269508621    1.05779062052635
O         4.86430438070595    0.15896638457093    0.16652335747783
O         5.27471441723569   -3.58492479764658    2.09824701008758
O         8.01154012660855   -0.52962636148890    0.22051376092512
N         6.71925851277073    1.67793932723622    4.23110738336774
N         6.70858030025197   -2.12542328453616    1.14844109696506
C         4.28094154057699    2.61121509602998    3.04043677508402
C         5.82791890035332    1.96075381270821    5.25318592883929
C         7.32075433463364    2.61793633295642    3.38736349596537
C         3.34055205839838    4.85376655083713    3.05339329491953
H         3.40363245877860    5.87138306640641    3.43482059223881
H         2.39799573492331    4.41415296483987    3.36952213001691
H         3.35663768256154    4.88325443203302    1.96689858662438
C         5.62342494162669    3.39458586382569    7.25327569129059
H         4.80080745823987    2.75450294257799    7.55963778589060
H         5.44420241916628    4.40255584775093    7.61889131796639
H         6.53895402332955    3.01827331195516    7.70486342215699
C         8.30348947818413    4.87455938345289    3.25631415113784
H         8.17039747862594    5.93291751618066    3.46640849820649
H         8.42456743749389    4.73563194611890    2.18604045887326
H         9.21216237353321    4.53180631536182    3.74593736990377
C         4.51276573741180    4.01682660279638    3.58288912317876
C         4.46660711580835    4.00313426048622    5.11348352107220
H         3.60072660740925    3.41817610121076    5.42962588000151
H         4.35084283901788    5.02574874681520    5.48022791398016
C         5.73872642404347    3.40050524706095    5.72620620867722
C         6.95473933543525    4.19419158979958    5.26839045889834
H         7.85882949723588    3.81806670535792    5.75517315195918
H         6.83707543877108    5.24298391243925    5.54994115991131
C         7.09464415738299    4.07664213622389    3.75412598369079
C         5.82714614890279    4.60474184471577    3.05991269875986
H         5.79832763665866    5.68814336243242    3.20136777609231
H         5.89889121387279    4.40086281298961    1.98966578521674
C         4.40654675947595   -1.00365205345404    0.08375764673092
C         7.31141107882650   -1.49354956736337    0.05924557113109
C         5.82957858065775   -3.20234768929204    1.09757110434971
C         3.32982515324014   -1.33171157973908   -2.05982796903525
H         3.32522271865111   -1.84574294397239   -3.01927237862992
H         3.39248137396256   -0.26020219947549   -2.23782015922871
H         2.39605045325490   -1.54743158353732   -1.54400725009605
C         8.29305369705694   -1.83879495111727   -2.17934369731387
H         8.13625791700001   -2.22450749595729   -3.18365998857218
H         9.18001388874248   -2.30745443539151   -1.75904214653607
H         8.46962565399345   -0.76837049190358   -2.23124042707192
C         5.44787877781935   -5.37734946424148   -0.00789958795762
H         4.62789081967931   -5.53218793314588    0.68755758761115
H         6.34626880078051   -5.81794641722511    0.41904370195041
H         5.22202867194431   -5.88378158846888   -0.94293724500398
C         4.52330401735384   -1.80074370137349   -1.21082335113224
C         5.82996696940724   -1.47826450715757   -1.94019232193675
H         5.96538907947947   -0.39466421967047   -1.95569049350828
H         5.75342659335509   -1.83154501391414   -2.97178294137512
C         7.07091740372015   -2.12596949391772   -1.30274223051510
C         6.86279493072604   -3.62706664752641   -1.13745938567995
H         6.70785137706970   -4.08966866498966   -2.11488293719665
H         7.75428545760533   -4.07844576597426   -0.69325476239999
C         5.64874924715874   -3.87908551724710   -0.25212380157961
C         4.39460690899627   -3.29785140355360   -0.92408113594746
H         3.53414800459132   -3.45747236944948   -0.27166908226128
H         4.22606401613911   -3.83046328326790   -1.86313469911824
C         6.67117727793482   -0.25196593409888    2.71978217090696
H         6.35016179289965    0.40278664759665    1.90952141844131
C         6.98270741451239    0.29013905847802    3.96574315542699
C         7.89006043510697   -1.80795802868588    4.64489514458478
H         8.37890859512842   -2.41355327629388    5.39391131544634
C         7.61547100613657   -2.37804212269915    3.40980620778585
C         6.98941321672811   -1.58234197689495    2.44898574611074
C         7.95579352620602    0.06748553247705    6.29306479964270
H         7.07196056593017    0.08994006311640    6.93047891862665
H         8.33746689158875    1.08356062843477    6.20712960855455
H         8.70997004194403   -0.55239660789802    6.77045177562080
C         8.01379287080253   -3.79464910558437    3.13903748715922
H         8.37980059307214   -3.90970147151707    2.12022794988642
H         7.15130908301479   -4.44896844381872    3.26445385223165
H         8.79086503746890   -4.10941739617307    3.83049649305014
C         1.78570447508199    0.60414174905025    1.31418390046919
H         1.78536846489867   -0.05501793182658    0.43230674026823
H         0.95961668637540    0.33914162631563    1.98535439315715
C         1.74258455237826    2.01137211325170    0.92634335526824
C         2.57047038617203    2.50589313610508   -0.10077041062748
H         3.28413587551606    1.83543063457990   -0.57649870475596
C         2.48344532643841    3.81893306740644   -0.51651227948641
H         3.12555891987580    4.17373487775627   -1.31136564994250
C         1.56962481814699    4.68579200047605    0.06845285901131
H         1.49121594814795    5.70762679136110   -0.27254814739450
C         0.76082290676246    4.22467826894792    1.09593565416611
H         0.04915010812988    4.89450963485699    1.55878237192337
C         0.84970135997350    2.91493089636605    1.52455720571101
H         0.20763267502330    2.56005686583610    2.32087976873624
C         3.94586080868053   -1.13270136979573    3.91375862994999
H         4.42315820294196   -2.08586568911254    3.66588324110426
H         4.35008906704038   -0.69983413992962    4.83120148851780
C         2.49177874691675   -1.23578843274746    3.94552737269089
C         1.70761161277726   -0.34353427092735    4.70691237430527
H         2.20893302131338    0.39033755529983    5.32675400749196
C         0.32920594513256   -0.40750142222300    4.68641344647015
H        -0.24974458742616    0.28689257225218    5.28050390656417
C        -0.32384562686071   -1.36532889526417    3.92223639539739
H        -1.40290361513180   -1.41219884292472    3.90968928045287
C         0.42727422202619   -2.27535607154980    3.19116095140506
H        -0.07485812714268   -3.04219184518695    2.61659102064618
C         1.80635939968046   -2.22094397703530    3.20409126922727
H         2.38609033565241   -2.95295546946126    2.65535965138867
C         7.59525534222271   -0.48721605627741    4.95052597537207

