49
CSD_code = GIXPUA | q = 0 | S = 0 | Stoichiometry = C18H24FeI2N2Si2 | MND = 4
Fe       -2.63352806047788    6.33173521131635    4.89160026225357
I        -3.51945959928131    4.17111135798688    5.72165477122035
I        -1.37408896101967    8.46245729876997    4.90478778121991
Si       -5.36787910705870    7.77186421859475    5.18265695821882
Si       -0.62215716749223    4.97528548906633    2.95759170406453
N        -4.20632301152351    6.96930323788892    4.12424747023978
N        -2.18100423490008    5.77344801859008    3.17268797180263
C        -4.26282228169836    6.73765580156362    2.84081035126790
C        -3.10885151618994    6.05437753024351    2.29849016932700
C        -3.31442140848674    5.86671779864771    0.87389145901648
C        -4.58262370676540    6.44410084670930    0.60140861658562
C        -5.19905137157982    6.98628520515398    1.75981732010769
C        -6.43418957617910    7.57412063604323    1.62752578642897
H        -6.95530402893644    8.00330201893111    2.46866324653893
C        -7.03049149536879    7.61328574017171    0.35391519091870
H        -8.00132641677418    8.07860774615604    0.26209029443186
C        -6.43174242775431    7.08767298912005   -0.76437642719646
H        -6.92614371417369    7.13927445614244   -1.72322528231660
C        -5.16214418746332    6.47373947019509   -0.66856644355606
C        -4.41353826966468    5.88554940724529   -1.71332828960333
H        -4.81384109440388    5.88061049836706   -2.71643304888187
C        -3.18777432673579    5.32428215395553   -1.45286832142464
H        -2.63005098261424    4.87788909711568   -2.26350715990190
C        -2.61719028173149    5.30220972380971   -0.16712118429634
H        -1.65078528978023    4.84476981597175   -0.02536982835134
C        -6.96769179102423    6.73869810045137    5.21263540607172
H        -6.79811341075334    5.78200111136610    5.69864612679971
H        -7.34846527488470    6.53203391857056    4.21787337373490
H        -7.74146745329158    7.25930685232666    5.76689844459676
C        -5.56310440827073    9.57741515029273    4.60828495582722
H        -4.67353547962411   10.15409629844388    4.84496245144225
H        -6.40404037268366   10.04479646969373    5.10988024969384
H        -5.72336128552105    9.65743068149475    3.53809969060351
C        -4.51435492858726    7.71105377777330    6.88971742627223
H        -4.26685135214939    8.70519129130673    7.24765723587085
H        -3.57742521446793    7.13986154977866    6.86031980391914
H        -5.14725735383583    7.23889414584815    7.63388331416411
C        -0.93621206276523    3.18329477605314    2.39387862441418
H        -1.38514693402447    2.60220541900042    3.19437170547233
H        -0.00142033491378    2.70480902142507    2.12105789278726
H        -1.60399450233132    3.12700338888499    1.54069239372243
C         0.12132550355608    4.99356484061634    4.71643254569145
H         0.41145964331891    3.99792966941884    5.03576301876098
H        -0.59189648143824    5.37083623881978    5.46069947605662
H         1.00003109675400    5.62819298236217    4.77104434857652
C         0.44648959761798    6.03362687466334    1.78942910020398
H         0.70646255545425    6.97834286548010    2.25822163033516
H        -0.05774208392526    6.26355577694759    0.85699025129402
H         1.37014484584501    5.51590303122671    1.55281716557432

