62
CSD_code = GIXPIN | q = 0 | S = 0 | Stoichiometry = C23H26BN7ORuS3 | MND = 6
Ru       16.22516684207159    9.20656390926107    8.10553663629117
S        14.88211188261340   10.60516372177725    9.67292067780686
S        18.01220655340608    8.28651533261352    6.64202544459803
S        17.06159956058314    7.82062193579750   10.04384501834028
O        15.70513611381477   11.24574061982516    5.99691075825323
N        14.51272341199626    6.72487678016564    7.36265371261724
N        17.12203645276693   11.97471902728925    9.00739615467561
N        15.55829358387537   13.21434361775328    9.93054366934638
N        18.89998390692660   10.64926670510792    7.62957061962550
N        20.19322344739079    9.77823559159231    6.07829238408137
N        18.42608932098271   10.13977666582000   10.00013257728397
N        18.90498413543165    8.86661001304755   11.72409091141061
C        14.99097037721467    7.73804386697739    7.70233225524623
C        14.04336947105262    5.57113183497710    6.83168373394730
C        13.31332304248991    4.68766813863053    7.63453268069174
C        12.85161397710661    3.51579127417283    7.06193842050463
C        13.10031103109612    3.21119484232500    5.72887843077535
C        13.83631875181206    4.10382104771164    4.96002033538841
C        14.32003035650004    5.28854227745233    5.48780159555586
C        13.05872129118548    5.03183590072103    9.06869053501749
C        12.60326759889738    1.92456873552902    5.14198204687139
C        15.11498700716759    6.26088417277792    4.67532563456743
C        15.88617784331104   11.96556689720837    9.53292056683532
C        17.57567714003887   13.26351044770472    9.06590218711104
C        16.61543051854681   14.03698057020473    9.62842223434035
C        14.31358323366310   13.59936302118964   10.52825809079792
C        19.05272179488429    9.61586852621586    6.78558238814401
C        19.98128411265485   11.47189445937850    7.45752080442135
C        20.77892183833902   10.94734983278361    6.49737060342795
C        20.68911832179494    8.88539534941050    5.07207761338036
C        18.15522725227352    8.97003711974597   10.59959111384918
C        19.36039414409609   10.78933851332459   10.76337658977105
C        19.66072831400838   10.01113663598076   11.82838087290423
C        18.89136993689462    7.76263465682073   12.63793923762449
C        15.84732390438309   10.40957987259376    6.78798678388151
B        17.72954330791289   10.57770187451007    8.65946498842296
H        12.28466803367354    2.82206366332888    7.66694558965164
H        14.03885986332323    3.87029763161650    3.92412838496828
H        12.55084988229497    4.21787698711889    9.57947676485139
H        13.99830611277621    5.24214435634090    9.57980169955710
H        12.44476995991299    5.93010210025602    9.13957750128192
H        12.52854314496002    1.99400401578478    4.05940649642682
H        13.29210921623377    1.11393622858846    5.38316439982757
H        11.62746763190576    1.66576323856555    5.54770141428705
H        15.34186554126114    5.85265053428712    3.69405526709454
H        16.04761563343831    6.51239188793609    5.18310408817264
H        14.56098892040109    7.19186974543183    4.55019410658146
H        18.52807373506949   13.55908125796847    8.68015865307025
H        16.59004986965230   15.08827879797892    9.82835087884043
H        14.44842931744819   13.82687097176968   11.58725770093536
H        13.62126743256722   12.76509624336007   10.42803667817974
H        13.91093250547820   14.47638588576441   10.02199406010891
H        20.12146593514313   12.36842967399767    8.02296013541156
H        21.69798277015210   11.30185082072260    6.07814910858828
H        20.88006582488848    9.43053531837866    4.14687691310048
H        21.61316272891451    8.40832869202351    5.40464894690367
H        19.93235745930433    8.12165512449644    4.89950312431395
H        19.73322656436715   11.75696649235931   10.49752625286309
H        20.33595711686802   10.16782443231929   12.64445461352767
H        18.62525387454728    8.10205212234359   13.64060534625255
H        19.87043481927848    7.28037133345259   12.67109417001952
H        18.14832632690917    7.04769865539546   12.28702939737779

