132
CSD_code = GIXQAF | q = 0 | S = 0 | Stoichiometry = C48H78PRhS4 | MND = 6
Rh        3.93992561827355    1.47744393778865    3.90618344251674
P         4.36843283970239   -0.72069160052398    3.33379734794403
S         6.22235293797884    2.09378320584763    3.99489266672782
S         3.47815623315091    3.69833241135485    4.23529051817899
S         3.77425030982141    1.15433095629827    6.26757319458877
S         1.60008837065140    1.09487751755288    3.86187986668548
C         6.26109177539971    3.80875259743611    4.28856284520641
C         7.46391896189118    4.54414036320121    4.43796898293915
C         7.36096659612632    5.90841250681695    4.63784030507056
H         8.26676305368818    6.47716170159852    4.74723256328576
C         6.15814209918768    6.61589666102416    4.69691862066984
C         4.99584292338188    5.88533076042811    4.55951335425066
H         4.02149427485989    6.34655375088653    4.58130416491637
C         5.06143986019523    4.51327067664823    4.38285855280339
C         2.94296402621462    3.77909581717281    5.98747550926276
H         3.01349234916451    4.82279680296066    6.29564030736835
H         1.89678313784744    3.46529190882858    5.98772429895140
C         1.10836567965484    0.73846118363879    5.49816782785615
C        -0.22689360826382    0.41154930446964    5.84084275020407
C        -0.50761494108087    0.11453712945589    7.16566911187968
H        -1.51813749294502   -0.13900069931647    7.42226136866949
C         0.43595351572561    0.11110961986904    8.18929670243521
C         1.73318993758503    0.43971079212987    7.84189471266191
H         2.52871567943163    0.44946901013983    8.57203130339057
C         2.04695715478088    0.76070483316323    6.53494388992900
C         3.78241754744764    2.88612488311328    6.86567540692919
H         3.40967857119986    2.87468186934336    7.89104043472976
H         4.83094077055031    3.19273930846709    6.85692856007641
C         6.09484394743541   -1.27753537080120    3.77447169320186
H         6.70447338744865   -0.56869803173736    3.19607368756257
C         6.47304272422338   -2.69898789539669    3.36460554530048
H         5.95177829018138   -3.41769669805132    3.99930984964305
H         6.19936163503817   -2.89707570309748    2.32750401023820
C         7.98007862192503   -2.89244927412851    3.53341836551661
H         8.25474323013696   -3.91038475327219    3.24647633393092
H         8.50786718755404   -2.20386613302391    2.86963193089418
C         8.40271235110989   -2.62663743782853    4.97506043513368
H         9.48526379419697   -2.73383773814456    5.06927479542665
H         7.93665093832239   -3.36614707166560    5.63117063391641
C         7.97617005440423   -1.22718579992372    5.40753243600287
H         8.25396061351054   -1.05872471864094    6.44997984203322
H         8.49150383403413   -0.48210882519273    4.79844710768265
C         6.46831163752818   -1.05732946771200    5.24104615957692
H         5.95823093622400   -1.77326570056981    5.88452400976422
H         6.17682745592928   -0.05324027260509    5.55182267906963
C         3.12378075690211   -1.96791497526291    3.97916365617313
H         2.17589570175310   -1.42322762440046    3.86537149716727
C         3.31287273405280   -2.25114451462878    5.46862269927365
H         4.16771074673709   -2.91492782643372    5.61137451664534
H         3.50720405866176   -1.32594786242156    6.01355840323447
C         2.06850826066781   -2.93315430399097    6.02794048097147
H         2.19359514915709   -3.11399327119013    7.09785344425767
H         1.20547133283262   -2.27564229079562    5.90140757444509
C         1.83275187296684   -4.25188306707979    5.29785810061550
H         2.66293903757371   -4.93180224228835    5.50583066393069
H         0.91780017854056   -4.72432140957682    5.66158241039861
C         1.73276548125113   -4.02214235922997    3.79291204899759
H         0.84918392529717   -3.41679204122226    3.57826825356428
H         1.61343994214354   -4.97963863282269    3.28049612881435
C         2.97036362761599   -3.30359347201206    3.25051960105951
H         3.84991271362578   -3.92911358366633    3.40847033342700
H         2.84070394120640   -3.16401692056471    2.17824615574945
C         4.30791381371258   -1.01723188907106    1.49680617389440
H         4.45584220671834   -2.09102770512534    1.33150981030541
C         5.40869974999291   -0.25744197662594    0.75774309140311
H         6.39257872284041   -0.58799055591429    1.09423090191812
H         5.31837906026478    0.80832808997440    0.97926654888144
C         5.30358497156424   -0.48044200994562   -0.74924497346383
H         6.08486472959654    0.08993543303274   -1.25563780097540
H         5.46617265034058   -1.53885074177728   -0.97165145036626
C         3.93248784771256   -0.06252230017561   -1.26707752235329
H         3.78783662337538    1.00419828974284   -1.08673302777694
H         3.87043634377172   -0.23558004384512   -2.34361802603011
C         2.84336010806387   -0.84635606115381   -0.54464085774048
H         2.95956593166372   -1.91256401247398   -0.75901672923561
H         1.85921551667961   -0.53883620923766   -0.90319900198286
C         2.93407551783670   -0.61116083552554    0.95966101220451
H         2.77175546820733    0.44844915883198    1.16999816139469
H         2.14429839479683   -1.16762286470582    1.46711696707471
C         8.83750605247945    3.87977015444968    4.38904460293071
C         8.94389590342965    2.83828010764189    5.51169300666132
H         8.82006555439204    3.31937915443315    6.48051519461735
H         9.92077419882206    2.36076441513751    5.48497620298854
H         8.18545224682683    2.06990913177887    5.40653927544997
C         9.04685572610901    3.22417758530956    3.01767123979199
H         8.98251890940532    3.97487871917240    2.23243232966266
H         8.29775916242008    2.46313745187536    2.82785683538221
H        10.02919329195815    2.75876536047854    2.97460561468809
C         9.99013238642665    4.87261876948596    4.59049816750925
H         9.93310250153169    5.36166888479303    5.56087293617919
H        10.01121638783728    5.62509409280272    3.80510942459378
H        10.93110032967985    4.32722622846761    4.55039095052327
C         6.17980006099010    8.12252984537176    4.89295271969956
C         6.89462897539988    8.45426301176889    6.21044802563562
H         6.38414885666795    7.97996359578842    7.04659363289552
H         6.89842836987603    9.52987580344530    6.37408311564250
H         7.92478831910288    8.10924696787562    6.20117377817820
C         6.92868777951057    8.76696900640013    3.71822507248775
H         7.95768594774341    8.42183708346658    3.66816497384467
H         6.93674732279262    9.84959750803512    3.82611997801405
H         6.43959552906588    8.51595709144962    2.77934977841582
C         4.77213640521193    8.72239440158812    4.94934405434360
H         4.20394330871058    8.31154212599230    5.78138272222362
H         4.23201391240677    8.53937210757184    4.02337737452074
H         4.84137775416150    9.79908969418641    5.09041390095836
C        -1.35117807746725    0.37387779289413    4.80639061438379
C        -1.04490575779585   -0.68907462696530    3.74220839037432
H        -0.92326631060559   -1.66335754549319    4.21371141840259
H        -0.14051051197254   -0.44573910353694    3.19475535351742
H        -1.86594498210295   -0.74936714101481    3.03145856465740
C        -2.71377100421592    0.01220242855301    5.41417690992056
H        -3.02341777346297    0.73592212797258    6.16509255206741
H        -2.70696705832929   -0.98427729026517    5.85114965477780
H        -3.46024800801410    0.01951837766191    4.62220898893925
C        -1.50666953117636    1.75760383667264    4.16101227402003
H        -2.32004005369912    1.74112328928773    3.43929937947955
H        -0.60076437789959    2.05522587063176    3.64398415460499
H        -1.73441619588275    2.50117295591635    4.92310306884639
C         0.10876299085881   -0.25325464676302    9.62817428468610
C        -1.38175637929581   -0.52356072077587    9.84872611018702
H        -1.55499791673774   -0.76017374628074   10.89677654099934
H        -1.71977184716133   -1.36997056379135    9.25551204950655
H        -1.97923977053130    0.35028281501326    9.59847672707730
C         0.88886688332329   -1.52218843124227   10.00075243823835
H         0.60197413274413   -2.34329655337880    9.34679355201561
H         0.67567320014720   -1.80744061319866   11.02879837893072
H         1.96029207985835   -1.36829111443798    9.90325275049561
C         0.52435056125293    0.90117201201033   10.55125958109322
H         0.26726722239247    0.66826405300018   11.58242905725006
H         0.00819622277164    1.81589267360850   10.26572591327682
H         1.59469871344448    1.08253934944607   10.50402095913044
H         3.97486241761104    1.82806252916391    2.44676805443213

