104
CSD_code = GIXREN | q = 0 | S = 0 | Stoichiometry = C37H59N2O5V | MND = 5
V        12.85972844851709    9.05673976207652   11.65884768543577
O        12.23266416832903    8.97991371928170   10.13379040542318
O        13.85166890122672   10.26540219318446   12.20753828413164
O        13.68151199497577    7.77519143905937   11.78902204014135
O         9.87748968723645   12.57431677523053   12.29392112269469
O        11.58459371160341    8.97845564685487   12.70646589219263
N        14.15629052352016   10.81267124018101    9.53118332840377
N        11.95756570554922   12.44498960013366   10.36085756522513
C        12.41817182042095    8.44646514609602    8.93964708287271
C        11.48503440057865    7.56881815564648    8.34084921123893
C        10.27003637025103    7.07373883220627    9.12114507400047
C         9.44991638268561    8.25492360647092    9.65611133090323
H         8.55141463738153    7.89094843043319   10.15245240621944
H         9.14870264858279    8.90797044111544    8.83830453412592
H        10.02719945283569    8.83320713525442   10.37256351339066
C        10.78153545564613    6.21572455759574   10.28969655327878
H         9.94526612348539    5.87208773427467   10.89723173924274
H        11.47083827034585    6.77906235874894   10.92215748687815
H        11.31067315186278    5.34512026144777    9.90596459041571
C         9.32871582427073    6.20657211085081    8.27552996560222
H         8.95233708719560    6.75701518615772    7.41606214480159
H         8.47632736832977    5.90939905771878    8.88349913726061
H         9.82200923751013    5.29978109516451    7.93471981129644
C        11.75069142324171    7.11229129804505    7.05944973434972
H        11.04159837729393    6.45143020602296    6.59270305208759
C        12.89082280531180    7.45556272292005    6.34004190437722
C        13.08192213543182    6.90739754683938    4.93374650542402
C        13.12722147545329    5.37420527071362    4.99429957404379
H        13.93643483684907    5.04948216446784    5.64449490194886
H        13.29452574474951    4.96365779723268    4.00058080142818
H        12.19725192222704    4.96566065627252    5.37912768750336
C        11.90936967629258    7.35793959327712    4.05121048568683
H        10.96199362550677    6.98548443281677    4.43016853891234
H        12.03929347821987    6.98731810581483    3.03647453696144
H        11.86017639568346    8.44428485656690    4.01869520200086
C        14.37978365121748    7.39650419742733    4.28526594731321
H        14.39269529902421    8.48115263437019    4.20780977708257
H        14.46095736488491    6.98609268711547    3.28061121687211
H        15.24711691776188    7.06838705288470    4.85282683652451
C        13.81544616768535    8.27444056435795    6.96735682025503
H        14.73507527478991    8.54729769950738    6.47473988868414
C        13.60071466410443    8.76126714904247    8.24635367196018
C        14.66469225161874    9.59094924410401    8.91508945070672
H        15.12668243295247    8.99246672228337    9.71575563729507
H        15.45061855666853    9.83052225077595    8.17037360553632
C        15.24985256823226   11.55181649988880   10.13994177165412
H        14.83802745325210   12.48941615638061   10.52398739522927
H        16.01715038377729   11.80494722133907    9.37983149172548
C        15.92585918465945   10.87761062837887   11.30761834969988
C        17.30911836107847   10.85890999594926   11.36555627078142
H        17.85409226864790   11.22270549751273   10.50879420157152
C        17.97702190328149   10.39165168915043   12.48605913985565
C        19.49231792697319   10.29226300645803   12.57416701674671
C        20.18308094587060   10.70785301733009   11.27248134314174
H        19.85732835453153   10.08400963365298   10.44368115118117
H        21.25989376350882   10.59189184073541   11.37935058035992
H        19.98039727971496   11.74999556040975   11.03690768292089
C        19.99833977057406   11.20736926092403   13.69796810135343
H        19.70813332427403   12.23750783815837   13.50248514178191
H        21.08360065800272   11.15965533932897   13.76108101944898
H        19.58813209964779   10.91546998603104   14.66045178211379
C        19.87918045354409    8.83736907240355   12.87441671633306
H        19.49559170755060    8.18043615805331   12.09706251657465
H        19.47358932036444    8.50828744863808   13.82668342187635
H        20.96199366628940    8.73597856905793   12.91184288641242
C        17.20134970854517   10.02879131568832   13.58053118214308
H        17.71070896313787    9.71339822338607   14.47426795964583
C        15.81337372672173   10.04253946205292   13.58650514327447
C        15.06172364733146    9.67433107204348   14.86626052149952
C        15.91217806728362    9.94678620839966   16.11863096988220
H        16.73379118649194    9.24189496613651   16.21260487782601
H        15.29243130431434    9.83772090696884   17.00633775655028
H        16.31241726657386   10.95816234651175   16.10338987685946
C        13.77679340920629   10.50193747942375   15.01607187105838
H        13.34211408223331   10.33265678095845   16.00070596507028
H        13.03683748509193   10.22211772895799   14.26923460049043
H        13.99632725215910   11.56439848002998   14.91676212199100
C        14.71583164225953    8.17958064832388   14.82656345245875
H        14.13967476113404    7.90298731561625   15.70850583110922
H        15.62695794606365    7.58463260828669   14.80534253753494
H        14.13750489152363    7.94649298079240   13.93172192591269
C        15.15791031327681   10.39354141230047   12.38437447492564
C        13.44394288651425   11.62630280608147    8.55874500426806
H        12.70695300099734   10.98205339018120    8.07367239959963
H        14.12765488815629   12.00752303130552    7.77339494766047
C        12.72417994677028   12.82589773197039    9.18694207521044
H        13.45720111078896   13.58284734317371    9.47678694147630
H        12.08281606860499   13.28496259370279    8.41440908288604
C        11.92913579785756   13.47557757769909   11.38386528281601
H        11.40841939210380   14.38653809415820   11.03206601859534
H        12.95235415906792   13.73807809787172   11.66200342776223
C        11.20105178565884   12.93125923138743   12.61140049340842
H        11.74936866556099   12.04935640652705   12.98188676792771
H        11.13916392508282   13.68717442942186   13.39689740593720
C         9.87960319761899   11.58376785453176   11.29201396537270
H         8.83285885196735   11.35518986354540   11.08064481813906
H        10.39361233572341   10.68621832530314   11.67081299747079
C        10.59703706552428   12.05985857725183   10.02976338769193
H        10.62496656670403   11.24800239386493    9.30107661349410
H        10.03814847934361   12.91281434237898    9.59584446622957
C        10.89775288044279    8.18891692132725   13.59798839479557
H        11.48902545312125    7.28976360206516   13.83193623379050
H         9.93428595143848    7.88143130009803   13.16512050965604
H        10.70306469454727    8.74574239240801   14.52601303470973

