54
CSD_code = GIXROU | q = 0 | S = 0 | Stoichiometry = C27H23CrO2P | MND = 9
Cr        1.76155715788731    3.40944106763247   10.64894557123630
P        -0.41362186336143    3.94362103605520   10.07431748753054
O         2.30233919544372    2.90075341990964    7.77130683800884
O         2.63437349592655    5.98281842998562    9.44084281477347
C         2.06390250518103    3.06318388123034    8.89857189463765
C         2.26576275212633    5.00446253401876    9.95370056589160
C         1.12195778137434    1.65283246755608   11.88226803452543
H         0.31653740090595    0.93460512173490   11.78578278536254
C         2.38433660267153    1.37391900777545   11.35427110357911
H         2.55579852362431    0.43842479882457   10.83454633750039
C         3.45697175712718    2.25594175119292   11.56685318111212
H         4.44891605249570    2.00108067228052   11.21459833350952
C         3.24505809755679    3.44405408206926   12.28575492437954
H         4.08295810379514    4.09389191909781   12.51039269967240
C         1.98968484226875    3.69545410265519   12.88211433819362
H         1.86315980642755    4.55021533430645   13.53554309004667
C         0.93075355254196    2.82477369824362   12.65039613106362
H        -0.02248782020226    2.98731915221184   13.14388913402894
C        -0.69988653987462    4.64437294919020    8.36397711751755
H         0.01066635200469    5.47412459985718    8.29227129248341
H        -0.39254910534737    3.87243610508214    7.65480089582930
C        -2.09774736541255    5.10461518866066    8.12091786175213
C        -2.44370749242829    6.43557615304303    8.33478701962515
H        -1.68233527752009    7.13515048336122    8.64901718191239
C        -3.74448897613868    6.86644456332589    8.14848475462814
H        -3.99552151048857    7.90322301726621    8.31807062337256
C        -4.72287662708991    5.97106254008608    7.75092215408048
H        -5.74034769274881    6.30474253996867    7.61016464794231
C        -4.38860324353248    4.64534804584975    7.52979223966517
H        -5.14576860939926    3.94225689518618    7.21393603293288
C        -3.08620418806786    4.21553953244991    7.71080688520419
H        -2.83222091305227    3.18070984270234    7.53274541352763
C        -1.51494601021104    2.49497215142611   10.10647434552510
C        -1.33872357888898    1.53370413040200    9.11184590165561
H        -0.63988158898964    1.72727310701459    8.30911198482289
C        -2.02795952245277    0.33757269065483    9.15955280051869
H        -1.89353848703962   -0.39498725745057    8.37699633803118
C        -2.88404990433580    0.07148303738032   10.21781242945786
H        -3.42424521211402   -0.86288018443449   10.25661487215645
C        -3.02956433540562    1.00021127958195   11.23436394694006
H        -3.67761705940402    0.78649206100715   12.07249769280233
C        -2.34255919886286    2.20084865787747   11.18626394450829
H        -2.45011378986611    2.91229967004328   11.99339191337520
C        -1.31255573593405    5.19915859414938   11.05191401444877
C        -0.53027705134346    6.12080103969410   11.73967499882273
H         0.54745838243391    6.02704988352609   11.68095901229661
C        -1.12039324052240    7.14041438536057   12.46428200929599
H        -0.50659969230081    7.85525956133167   12.99281411530557
C        -2.50129858234011    7.24548468485516   12.50787582641192
H        -2.96594965370167    8.03886376094435   13.07474858147049
C        -3.28632815698774    6.33535084445501   11.81919102066794
H        -4.36286241353176    6.42212615869962   11.84381127400557
C        -2.69956019391644    5.31763266205801   11.08833172018745
H        -3.32020172900179    4.62107414844236   10.54348187178215

