90
CSD_code = GIXRAG | q = 0 | S = 0 | Stoichiometry = C44H38ClMoO3P3 | MND = 6
Mo        6.18063910246977    3.00872850128174    8.91029529807126
Cl       10.30349144672411    7.54149927933458    8.34986820051837
P         7.52339707958818    3.72263934071718    7.09255745735657
P         8.27220234325707    2.59648590565274    9.93989720446855
P         6.53763906210471    5.22166823092211    9.68546511570766
O         3.45158188631845    3.48893639239422    7.56871985534729
O         4.39594452796306    2.08074692229258   11.24100012128847
O         5.66885589444534    0.13282264795906    7.93835141761094
C         8.64885988526546    5.12302646963946    7.49431087686541
H         9.45259360700287    5.16155257452959    6.74964602048449
H         8.05808710625127    6.04346776035336    7.41848084934243
C         9.66157851532327    3.60599187143963    9.26244331055554
H        10.48017631639929    3.62145363898469    9.99205150164185
H        10.01169330051788    3.10562909603544    8.35150949529015
C         8.30943246402309    5.64225827866285    9.96088785483728
H         8.41697805550471    6.73273853069171    9.97007374391010
H         8.59152933671317    5.24791798441531   10.94511706452200
C         9.25353849440177    5.04651036446602    8.90512569848106
C        10.55665158360771    5.86526487247741    8.91642880802249
H        11.30198016543365    5.42353593900733    8.25287797079197
H        10.96432119164882    5.93882867902522    9.92604890024225
C         9.43947960088459    2.99400495341145    5.16761556626925
H         9.37002336791521    4.01602735616060    4.81803236069216
C        10.28201540899315    2.10650380772573    4.52699227977066
H        10.88058233935026    2.44168778582302    3.69204861646311
C        10.35476197398368    0.78629355300232    4.94631699210106
H        11.01517161665396    0.09643933586753    4.44180346324215
C         9.57049799105033    0.35357155333125    6.00089501598139
H         9.61078110371301   -0.67555557970200    6.32641120958960
C         8.72600190687895    1.24229453776864    6.64361964464569
H         8.10639699570249    0.90729632756702    7.46335023942903
C         8.66567821937189    2.57030607254765    6.24703900594027
C         6.91065029715323    5.50094566566125    4.91433454101539
H         7.62093668622128    6.22582303831639    5.28536874993233
C         6.19085386874543    5.78988808528257    3.76702101921659
H         6.35414284739599    6.72979231365017    3.25904946235547
C         5.26661781445246    4.88671221079524    3.27154720824246
H         4.70648740981029    5.12234858324943    2.37859225689607
C         5.06029016535355    3.68020938727650    3.92280043656097
H         4.34158603415308    2.97179547062611    3.53831417046736
C         5.77250718114984    3.38993457993208    5.06925317049591
H         5.61701980768536    2.45365371509589    5.59546038015448
C         6.69796876668510    4.29898929383018    5.57820059433236
C         9.73929077404080    2.55106818533353   12.33995826974159
H        10.57057325318977    2.20125500029385   11.74126548049061
C         9.89477131451232    2.70678188268703   13.70359482162685
H        10.85014572945063    2.49605631932435   14.16257000484290
C         8.82706866419995    3.12362481436388   14.48479650068870
H         8.95419486188081    3.24356368111121   15.55061075694508
C         7.59871531389721    3.37164954128148   13.89814525168795
H         6.75834902164098    3.68500858512220   14.49993817983388
C         7.44197748733256    3.21615242331584   12.53163241070375
H         6.48304535711551    3.40318451893010   12.06940852331057
C         8.51100930727849    2.82327209877928   11.73953091111752
C        10.21112993081963    0.52315481339428    9.44550419871273
H        10.91908236704506    1.24954718041886    9.07241820288584
C        10.56850628157834   -0.81461676564050    9.46759421155186
H        11.54749579869974   -1.10974110488021    9.11733758966065
C         9.68202101261188   -1.77056812830043    9.93181004910985
H         9.96764241879832   -2.81211086046577    9.94181714896752
C         8.42764658700846   -1.38940317080125   10.38303393716584
H         7.73351645034409   -2.13174185042583   10.74795327500369
C         8.06597862318089   -0.05734171007348   10.35814173819391
H         7.08497536400425    0.25641694806487   10.69977479449424
C         8.95068659197333    0.90937695024927    9.88420187349471
C         5.27523518852585    6.48727182370422    7.54129969104932
H         5.08542736946278    5.48272252289431    7.19012689235427
C         4.83172334668265    7.57568019486025    6.81015945803439
H         4.29870949595857    7.41598873294145    5.88430781475274
C         5.07324884476412    8.85905552289823    7.26737012504536
H         4.73175347180198    9.71126589429361    6.69839273110756
C         5.74477403890193    9.05144310468707    8.46560354720992
H         5.91984030207025   10.05269859901763    8.83210528794525
C         6.18653472820373    7.96636390957915    9.19682005334380
H         6.68885424999769    8.12554096566444   10.14203160043234
C         5.97107324031776    6.67177778777070    8.72715583804717
C         4.38681165082700    5.48581333664013   11.28988602290798
H         3.91004284507271    5.03728614654267   10.42443276678592
C         3.64961663546706    5.80851680612849   12.41158476741450
H         2.58687039940827    5.61819187467501   12.43381222710028
C         4.27983335617070    6.37125550947709   13.51090949424375
H         3.70933631646105    6.61839497475627   14.39410885511074
C         5.64145390687164    6.61633869733611   13.47572542545017
H         6.13340519722809    7.05785230141694   14.33087666598709
C         6.38361294334558    6.29844371506788   12.35056781978485
H         7.44638986921414    6.49414530082711   12.34939540385804
C         5.75975440049780    5.72107282510677   11.25154185262670
C         4.48513653773029    3.36411219236862    8.04744568034160
C         5.09598979281258    2.45194305271124   10.41276959036965
C         5.91632659332857    1.19856952902687    8.27990910933486

