41
CSD_code = GIXSAK | q = 1 | S = 0 | Stoichiometry = C18H17N4NiO(1+) | MND = 4
C         2.10283160500303    9.73076696561060    3.74461259768315
C        -0.02776075135233    9.16736030725776    4.03965760160991
H        -0.97029924893620    8.71531220779500    3.80965772489187
C         0.35969224032819    9.89646865606277    5.11699291413556
H        -0.18925329334235   10.19761091926570    5.98502642543800
C         2.49195947989385   11.04110682409462    5.78224940152095
H         1.97944476528730   11.18036710586933    6.73546508550855
H         2.64390020362731   12.02727997954249    5.32141342129460
C         3.84488710399431   10.40065278427108    6.00194877040190
C         5.66348782219150    9.29239899616265    5.13918723789099
H         6.15005468864933    8.87424105082609    4.26823524634109
C         6.27316512623831    9.22360333516458    6.37965637231928
H         7.23161643363245    8.74123562581689    6.48010372654055
C         5.63330854377189    9.78434870425183    7.47197186370834
H         6.07874177500116    9.75682613303045    8.45386360510776
C         4.39525137675851   10.37393963763523    7.27542985469196
H         3.85895648554498   10.81268598657376    8.10189671594870
C         1.13615155321360    8.46448401928469    1.91303721739214
H         0.13264732587995    8.20663062941352    1.57155668528758
H         1.73959167802701    7.55183622999448    1.97511130789635
C         1.78351235114114    9.44751264118686    0.93281568706911
H         1.70808800561384    9.01964104451073   -0.07250604368999
H         1.21553820631142   10.38692703473004    0.95098930887568
C         3.95521761908656    9.91400834869918    0.20619254452857
H         3.49659990940716    9.79980542219965   -0.77689029234975
C         5.32440530102151   10.24229788507079    0.17404221170879
C         5.98409165253092   10.39548327719844   -1.06650007435853
H         5.41509809401231   10.25961696622987   -1.97444610775470
C         7.31120965174729   10.71234912113453   -1.12207754566635
H         7.80736343361650   10.83044999964005   -2.07184164483764
C         8.03495033207011   10.88681733022911    0.06702751377479
H         9.08364588705671   11.13818020484795    0.01592590129693
C         7.43375002167126   10.74119623441620    1.28670351322988
H         7.98460921155347   10.87720327305109    2.20495997041751
C         6.05877675760226   10.41803081388287    1.38533141452528
N         1.05501134481554    9.07869004152358    3.21478754522587
N         1.66774740126143   10.23562439078101    4.91475137342277
N         4.47996984298737    9.87938666625355    4.94442586327972
N         3.18425868810692    9.73719961626508    1.24557804956490
O         5.51910894645971   10.28657754544839    2.54329823976243
Ni        3.81737242851467    9.92114604477856    3.05045879636581

