62
CSD_code = GIXTEM | q = 1 | S = 0 | Stoichiometry = C26H32N2ORh(1+) | MND = 6
Rh       23.36423030295536    7.45636954704376    0.42639941366057
N        21.84356728470318    8.84478985644299    0.09885243569496
C        21.81847291298040   10.17107752413026    0.21394910731980
H        22.66511744958585   10.64096213103580    0.69429646377864
C        20.77049779384147   10.95288625715308   -0.23421773650381
H        20.80793934193228   12.01998096710503   -0.08513205882380
C        19.66220562455490   10.36438875446825   -0.85210134005200
C        19.68276618936116    8.97098420181571   -0.96304773644750
H        18.87721560290838    8.43122856571223   -1.43454596861396
C        20.76967541783865    8.26451891754831   -0.48009192655557
C        18.54031534928941   11.15710832552431   -1.34728245456151
C        18.75500637981568   12.42098364797854   -1.90069748232339
H        19.76041877055727   12.80346895396323   -1.99392175641168
C        17.69204100443528   13.16682592391200   -2.37197774813893
H        17.87088903301671   14.13745129285497   -2.80815350674958
C        16.40038983023646   12.67184910489465   -2.28535326132957
H        15.57122458725143   13.25885564918730   -2.64836255889842
C        16.17582690226730   11.42130309179692   -1.73159738729566
H        15.17071297802129   11.03562750017133   -1.65734294988904
C        17.23602352142280   10.66411163312734   -1.27241054278329
H        17.04993894761366    9.70139125175139   -0.82016586121421
C        20.81995369249985    6.81081534989234   -0.50019839321606
N        21.83380350812711    6.18374692030146   -0.01499697011853
O        19.81235922890762    6.07800944179476   -0.95182289848291
C        20.20502166681172    4.70654126413514   -0.80699177262809
H        20.34621605813705    4.28619957989827   -1.80656305046760
H        19.40141325445788    4.17172500804043   -0.29916493328363
C        21.51017619922668    4.76439415182368    0.01981754876427
H        22.31295903415185    4.18445366244182   -0.44111821214557
C        21.30648182603148    4.32177458382051    1.47534319347890
H        20.35290939633541    4.72471037257394    1.82578069207886
H        22.09040607250863    4.76623192356559    2.09363123914662
C        21.32067374085874    2.79749141989868    1.64839752691782
H        20.71333024703026    2.34913712318369    0.85403586623275
C        20.70573556434473    2.42908751248537    2.99700205192039
H        19.67640594092332    2.77307142793935    3.06329262831513
H        21.27243105207565    2.87881261697332    3.80890029045585
H        20.71245363364271    1.35129355617066    3.13217619234538
C        22.73880873251046    2.23950060943919    1.55414369239996
H        23.20549663275839    2.47862977797473    0.60127781248255
H        22.72007722964618    1.15771388891142    1.65216809768566
H        23.35762848214596    2.63984123997029    2.35438298411099
C        24.77340568998274    5.95914088341751    1.09764127253061
H        24.20206754011872    5.10547110499779    1.45714313990812
C        24.87622785653747    6.11729849818380   -0.27581127265735
H        24.39762100017094    5.37275663888869   -0.91422218023673
C        25.94142016017201    6.91301543088848   -0.98802593305985
H        26.86009938593118    6.32061608942001   -1.02997476228089
H        25.61437964071274    7.07056169228014   -2.01894894706983
C        26.22212091574496    8.27967123131691   -0.33635309670983
H        26.60148083070288    8.95704362114994   -1.10210677807903
H        26.99269506255597    8.19378929508933    0.42812389720614
C        24.97322322847198    8.87583138024032    0.27389590393817
H        24.59207296949939    9.74579568864047   -0.26077259371722
C        24.61689144313686    8.71541869503332    1.60509920799751
H        23.98661730245021    9.47517051399548    2.07058084002523
C        25.37412685233740    7.88821375264161    2.61509840160176
H        26.26094639747271    8.44132870536244    2.93791135181318
H        24.73647066139070    7.76321981964159    3.49337245658870
C        25.77973187365858    6.49915645305920    2.08813183589719
H        25.84835247507625    5.81421674412931    2.93384049946845
H        26.76283229605622    6.53243923280443    1.62078802700958

