63
CSD_code = GIXTAI | q = 0 | S = 0 | Stoichiometry = C27H25MoN4O5P | MND = 6
Mo        5.91834980481275    9.88384043251642    4.47823955904243
P         8.03605131414768    8.88074142502766    3.97034720171295
O         7.96016773675421    6.63841786098961   -0.27283919990622
H         8.31489659044727    5.73137652406323   -0.31618503559667
C         4.20945344018141   10.63351691821468    5.02621386465653
O         3.23355001237973   11.11044433335320    5.37994808023912
C         6.76416889639813   11.56700956002279    4.93394633764600
O         7.23902252024113   12.57100534004501    5.20966845256314
C         6.21377262020799    9.27655001846307    6.31651607795342
O         6.36888548881858    9.01995008610944    7.41820073714277
C         5.52927715853260   10.62214191443234    2.70746766822147
O         5.24312480686101   11.15890433926247    1.73751789243529
N         5.10526686182010    7.18495856424638    2.93631974403927
N         4.95126740081311    7.97400373738464    3.99789382227191
N         8.45549904988925    4.48511868748597    1.99197484434700
N         9.08291832677092    4.32190987568673    0.82777603410135
C         8.04700957983045    7.09159184841515    3.47752471657514
H         9.07150808721423    6.70659229620527    3.52829879319979
H         7.45806143832662    6.60115983681711    4.26533843095965
C         6.07483960133880    7.44948065109119    1.91318857943498
H         5.67047507227222    7.14869368278572    0.94248631640107
H         6.25275659979168    8.53059075461466    1.89909753836243
C         7.21710536052147    5.20828664137632    2.04451953598157
H         6.64879304550518    4.86353440258939    2.91260171477357
H         6.66066616415966    4.97155113884713    1.13303025943954
C         7.42858731420756    6.74355421903636    2.12132997989747
C         8.34703719030630    7.18592639772099    0.95247062156890
H         8.28882855608679    8.27283812958580    0.84583047332974
H         9.38683057250516    6.92784385540600    1.18869775795830
C        10.55732316583184    9.08676196225312    2.75802421721228
H        10.83370171893520    8.22892651569288    3.35697671966575
C        11.48502719438890    9.67081659577420    1.91815843369171
H        12.48131036014705    9.25928535530308    1.84734397305602
C        11.14186896002368   10.78846436998212    1.17228427585147
H        11.87052591482266   11.24277944657328    0.51767398439801
C         9.87177270730094   11.32855661742183    1.27668200119858
H         9.60754450891499   12.20768918659593    0.70830507213416
C         8.93874143555988   10.74356785983313    2.11562369790762
H         7.94779225113434   11.16785891660203    2.21590396040115
C         9.27098783488955    9.61329438189691    2.85009608634877
C         9.17380717096061    7.70696234660999    6.30960622952903
H         8.69993559334039    6.76848953169067    6.05808242713739
C         9.88708944239470    7.80110502389814    7.49272068717320
H         9.96808847154767    6.93742816981367    8.13694113021784
C        10.48490954704516    8.99448841259149    7.85651885152911
H        11.03451036715123    9.06321355710206    8.78338087001274
C        10.36652240469251   10.10360121008355    7.03354012554155
H        10.82199146101953   11.04063819106648    7.31744868143899
C         9.65735935930651   10.01283540088851    5.85245069435127
H         9.55418102904425   10.87876471191314    5.20944982444964
C         9.06205220272046    8.81068202094244    5.47240763371755
C         3.99466945589286    7.43684754332986    4.73554006617592
H         3.68285184793238    7.89477125496716    5.65669269911310
C         3.51029850204443    6.27160089532749    4.13496324835811
H         2.73402430912768    5.62641048602438    4.49020918280506
C         4.24510084723403    6.14647092708895    2.97970186196807
H         4.19933523328780    5.41480745729840    2.19873688062460
C        10.19521287843382    3.66527471991589    1.09570886573392
H        10.87504048911362    3.40914993120463    0.30825952364510
C        10.29459272078384    3.39592253872002    2.46602184753337
H        11.07924677750056    2.87708971811708    2.97589576495354
C         9.15518840875684    3.94372576418735    3.00841734415380
H         8.79882481757386    3.96928550749690    4.01851233921865

