37
CSD_code = GIXXOC | q = 1 | S = 0 | Stoichiometry = C13H20CuN2S(1+) | MND = 3
Cu        4.81415717034853    0.34189346171846    4.52655180043582
S         2.93601103566621   -0.87910322241131    4.59196776958001
N         6.30046259445001    1.28743816582937    5.25214781264473
N         4.75844338672449    0.57580908291066    2.41836549235975
C         1.83377456966546    0.25543840736731    3.65237751471911
C         2.22580721794106    0.56748203519316    2.21752724310026
C         3.54506853458083    1.31263145938150    2.01957926601572
C         4.87147040374422   -0.73308478865226    1.74154100799150
C         4.74148964083129   -1.93288091212841    2.68841687746593
C         3.38376884291556   -2.14879439477360    3.34289858192495
C         5.94200836343401    1.41496976211387    2.17551258280783
C         7.17208549022068    0.97361106695012    2.99111855202896
C         7.24604520130193    1.59978690808945    4.35638412522444
C         8.27792596476361    2.47123743017003    4.68263000921442
C         8.33932803533930    3.01763421040059    5.95372632880948
C         7.35718388118477    2.67850660860741    6.87266914939927
C         6.35449913301861    1.81479778995154    6.47680484549817
H         0.84742924583599   -0.20940103282007    3.66521789006525
H         1.80043476169212    1.15974035473204    4.25891381192442
H         2.20749819655174   -0.34529835544632    1.62230834727300
H         1.43994979273821    1.21232634859922    1.81541610694427
H         3.61691929288470    1.58782348860880    0.95723129189305
H         3.51388840110388    2.23578480129023    2.60536587664137
H         5.85239965711906   -0.80425494124415    1.26472246513743
H         4.13046829427961   -0.80955675188363    0.94223464434833
H         4.97272974351324   -2.83075578689056    2.10927568428465
H         5.49329994778967   -1.85033698464494    3.48065702678245
H         3.40119273311490   -3.08320460960770    3.90409165253404
H         2.57127624138470   -2.20144534035112    2.62226045831484
H         5.69712250490474    2.44439130152596    2.44787731963267
H         6.19599165339784    1.40757970068875    1.10805190045965
H         7.16658242939309   -0.11255724922066    3.10082403216062
H         8.07054162816027    1.24698466796777    2.43796749491738
H         9.02854353822403    2.71377388513629    3.94732232304702
H         9.13883004207990    3.69023095442472    6.22209233634406
H         7.36837769086066    3.07283598820062    7.87510922783918
H         5.56869473884112    1.51956649021733    7.15704115023608

