68
CSD_code = GIXYER | q = 0 | S = 0 | Stoichiometry = C24H38CoO2P3 | MND = 6
Co       -9.66535952137765   11.27051034274798    2.34163660134831
P       -11.45379450690343   12.53521230041524    2.36115995032628
P        -8.03915554646681    9.96520267037697    3.02300230170194
P        -9.39852029627374   11.03818773859369   -0.04542824507965
O       -10.09968230778465   11.41974856383816    5.07824282772747
O        -8.48563289235060   12.73784355771265    1.90808342186700
C        -9.50636813402560   11.93766627792678    4.16500761792389
C        -8.60005672950277   13.03993698557399    4.18238574241868
C        -8.13720301191561   13.41929221396497    2.92654263479054
C        -8.16943305507546   13.61210464105066    5.45982290507623
C        -6.83078726551571   13.94994495486421    5.67180302535470
H        -6.10912279027770   13.79317196536564    4.88174910196846
C        -6.41839731896990   14.48051024790511    6.87782139422278
H        -5.37901607348022   14.74195660766256    7.01968339052207
C        -7.32697920948883   14.66823017611387    7.90674796500810
H        -7.00190621741118   15.08122913371685    8.85062678695201
C        -8.65172499324699   14.31268098711559    7.71808296067911
H        -9.36562129178020   14.44657775503208    8.51856921816580
C        -9.07000938162030   13.79035472794568    6.50916159461711
H       -10.10304437756691   13.50909150493486    6.37320624194663
C        -7.29878543780849   14.61646914806272    2.68921779368815
C        -6.26827739411279   14.55444807354869    1.75605600237552
H        -6.08166101413843   13.62188727061792    1.24265918382085
C        -5.48512473209246   15.66441024167312    1.50028823799879
H        -4.67928516513051   15.60201375795447    0.78277161118606
C        -5.73468100943062   16.85461292813248    2.16229112645281
H        -5.12307535962527   17.72275601646279    1.96418436690881
C        -6.77471348855213   16.93109979932466    3.07515957168966
H        -6.97848253144275   17.86200743429818    3.58409069303279
C        -7.55474807609524   15.82144098463064    3.33851246001412
H        -8.36647368001270   15.88482134712424    4.04813672512767
C       -12.45334756023372   12.65465070676314    3.88895085223627
H       -11.93131578936792   13.26018987871791    4.62652013335844
H       -12.58286856405319   11.65483016939689    4.29801632926884
H       -13.42243886378062   13.10029361865084    3.66436249514678
C       -11.28113604420451   14.32323602986521    1.97043372755440
H       -10.63347956873139   14.78118998870759    2.71697909335778
H       -12.25822240262594   14.80541651207327    1.99095090277846
H       -10.82494049694932   14.45312545782552    0.99230134502474
C       -12.79559251057278   12.03231982605948    1.20771055941289
H       -13.18398548960332   11.07762227379888    1.55796924669869
H       -12.40698881579622   11.89609831290045    0.20220952263668
H       -13.59339913671161   12.77464745975907    1.19755538014388
C        -7.96152888274245    8.31255091021491    2.21949848583982
H        -8.83788887227877    7.75396848649671    2.54313354262519
H        -7.05581993528239    7.78158639146729    2.51172488440079
H        -8.00004374009869    8.41079662494495    1.13775569389787
C        -7.99884465522082    9.41969007090408    4.76874132319054
H        -7.27928443230933    8.60905450181151    4.88541225905296
H        -8.99430814651258    9.08345540294575    5.05130625296819
H        -7.72550189212540   10.25347685472562    5.41307844059505
C        -6.29972534678488   10.53683710593730    2.85368727007678
H        -6.17635503903659   11.45129616718574    3.43225634648264
H        -6.07042518486678   10.74602494295186    1.81201993520270
H        -5.62112831419949    9.77357085181254    3.23378845431656
C        -9.75918933926644   12.56334396718739   -1.01105451982082
H        -9.47008211799561   12.42623442017836   -2.05296538065325
H        -9.18112028942559   13.37552620280509   -0.57565669006702
H       -10.81559288078097   12.81549154940852   -0.96200665840115
C        -7.66577520608644   10.83846956113915   -0.63499787743199
H        -7.08001289423938   11.65719779093279   -0.22392433082502
H        -7.63090583487808   10.87893787575769   -1.72360335208965
H        -7.24498071638416    9.89474321821298   -0.29645664866981
C       -10.22677025832293    9.78505894306564   -1.11539628197624
H        -9.94020845371761    8.79004059307700   -0.78126738023482
H        -9.95409140075377    9.91125243987932   -2.16216882919609
H       -11.30508911584601    9.87774929834705   -1.00566522582562
H       -10.55538899870550   10.14650523929429    2.56362548911700

