69
CSD_code = GIXYIV | q = 0 | S = 0 | Stoichiometry = C21H42CoO2P3 | MND = 6
Co        3.50346114643982    1.56592503243740    6.81225324275624
H         4.73919871343140    1.47900989836453    7.56791457385448
P         4.49697293420907    3.06333782836732    5.55301965923843
P         2.42127525605181    3.04535900029079    8.34758214820928
P         2.92946482795732   -0.34266377032471    7.73073229900730
O         1.79001367161101    1.74573586831190    5.86085557314592
O         5.07595187501761   -0.13862626844961    5.27806133760031
C         4.00454725518463    0.40668926507556    5.36530928018635
C         2.90340669861330    0.31014410290236    4.43720603727356
C         2.97307034908572   -0.47320318354923    3.28099506457866
H         3.88170381467643   -1.02299309724002    3.07817014872714
C         1.89277079708937   -0.52591845031619    2.43583778918478
C         0.74583877324507    0.21508553252199    2.76280097664050
H        -0.08269367181373    0.14890841441355    2.07403257360949
C         0.63066577372069    0.99968118918074    3.88684179683672
C         1.75070309935973    1.05806727195772    4.77243904538876
C         1.90538633266034   -1.35570160721019    1.18481949930454
H         1.64340201912388   -0.74963349777594    0.31774348864586
H         2.88899985306254   -1.78943486727624    1.02123675912156
H         1.17892519576668   -2.16634163320687    1.25575424217627
C        -0.62839044100207    1.79174365254895    4.20883328756322
C        -1.73409422985867    1.62367229384879    3.16386965778356
H        -2.59900198179140    2.21561155145616    3.45903298762138
H        -2.04828788614481    0.58502541062478    3.08686949518931
H        -1.40741649913402    1.97062554236158    2.18594567680557
C        -1.16857854086341    1.32291616742137    5.56578356428380
H        -2.04326380534110    1.90535929553349    5.85149391946805
H        -0.40000542190991    1.44559703151609    6.32235845773364
H        -1.45030050662013    0.27220537727871    5.51984497995572
C        -0.26294584747830    3.27915156278569    4.29298176858195
H        -1.13311452334047    3.87198408604613    4.57100703105212
H         0.10712118264220    3.63405131224862    3.33248010944821
H         0.51277709630889    3.41906659219375    5.03921075301377
C         3.48817486162493    4.02865098784194    4.36019774409191
H         2.72741039232329    4.59891703038589    4.88684537765806
H         2.99506116888186    3.33316165017342    3.68232931820251
H         4.12859761128845    4.70274439603895    3.79163328510748
C         5.85024249947581    2.53924411873452    4.43661050729095
H         6.54037468948857    1.90915408023196    4.99414037210612
H         6.36960834309753    3.41601482412543    4.04935493527593
H         5.44474857722521    1.95601626105954    3.61180594191389
C         5.39803821715173    4.39912929565822    6.44196737066946
H         4.75731905031730    4.87122464908671    7.18176050965035
H         5.76335950038071    5.14796604841897    5.73962648753819
H         6.23782073803263    3.93801048572010    6.95850834192846
C         3.81878399301498   -1.87088164290722    7.25495218374391
H         3.55029714297561   -2.15445891367736    6.23887937978286
H         3.56267357318074   -2.67633814687101    7.94351619970403
H         4.88919203079067   -1.67715183449289    7.28449459616914
C         1.20211892989535   -0.93562043635629    7.53800164662017
H         0.50900707016900   -0.22141757869349    7.97487887430971
H         1.08628726204693   -1.90618227045896    8.02009616034043
H         0.98430736708081   -1.02656039401436    6.47467386254346
C         3.16176453562433   -0.46550795412778    9.55208740899711
H         2.69328009537011    0.37397853426876   10.05852586892903
H         4.23202524083399   -0.43078181101824    9.74710509561570
H         2.74837557893974   -1.40060060622184    9.92921530364866
C         1.81007288777939    4.66478823766497    7.71697412449493
H         2.62554622204759    5.25971557390065    7.31352727121716
H         1.32061926544828    5.21949352525181    8.51735263813075
H         1.09243328275711    4.46909708668885    6.92342060019677
C         0.82399474787248    2.51655570009193    9.09811048923310
H         0.94431591161561    1.59747915100665    9.66602823200267
H         0.11396472145758    2.34114422926390    8.29307571742775
H         0.43992715307476    3.29789549002552    9.75373854175968
C         3.29502368831198    3.61908444390297    9.86515731089944
H         3.57581091033446    2.75450722482444   10.46244239045749
H         2.66745355660691    4.28464081429046   10.45610482145831
H         4.20720587352633    4.13645084584793    9.57654386689593

