69
CSD_code = GIXZUL | q = 0 | S = 0 | Stoichiometry = C36H25BrN2O3PRe | MND = 6
Re       -3.22599533862396    2.67559453344011    6.52555451504162
Br        4.58456163398120    7.64961674203366    9.53758429079464
P        -2.64989248171329    4.01374715997845    4.48996922423854
O        -3.61888563156383    0.18871528606815    4.71718095224804
O        -3.64941248026683    1.05236984376596    9.12762887931089
O        -6.23306863227380    3.40917752422224    6.37776267993150
N        -1.08495403146954    2.32648166444227    6.67618991578938
N        -2.80714442175621    4.44637747395748    7.71548118886467
C        -0.46098467030611    1.24683873572236    6.22382436264622
H        -1.00000615130770    0.42797686722905    5.77812374189048
C         0.92956941079919    1.33629034630141    6.40548871297306
H         1.64935334936182    0.59264047996633    6.12389295034334
C         1.16042433698688    2.54956550486936    6.99990538952302
H         2.10546836021763    2.97330731749411    7.27972485352095
C        -0.11060676480926    3.16736563010324    7.18075653181532
C        -0.33754428768362    4.41482494563982    7.76536436214340
C        -1.57914391728689    4.99904938327033    8.02016977871455
C        -1.78870673865424    6.20087600368651    8.75375450393437
H        -1.01711795922189    6.83979421039528    9.13697863599890
C        -3.14403862872796    6.34685870695284    8.89426317970122
H        -3.67303318110636    7.12974023653016    9.40194936477898
C        -3.72580489933431    5.24680179351389    8.24275097104699
H        -4.77762061443903    5.02824066116241    8.16327113173948
C         0.84995504910354    5.18382857675530    8.19529801312828
C         1.15538719791362    6.39177334444267    7.57577479195470
H         0.52163057654604    6.75813347645790    6.78116143437614
C         2.26211307585389    7.12238988502460    7.96580708304864
H         2.50098799745192    8.05703708826518    7.48191141978111
C         3.05991608522074    6.64290468113466    8.99071272355137
C         2.76906969791424    5.44824358749180    9.62714694876361
H         3.39706246736301    5.09153720824600   10.42902966342085
C         1.66519910686521    4.72051520940868    9.22299711652238
H         1.42416183426476    3.79136076136989    9.71743268728899
C        -2.20991158816140    5.75819262224635    4.77812701474946
C        -1.01949421501445    6.37122927501241    4.41056279527673
H        -0.26173676042270    5.82379469715922    3.86922228289984
C        -0.80776063823937    7.70443669336754    4.72374495802411
H         0.11973778081951    8.17778571070746    4.43358868589776
C        -1.77407002517912    8.42938505911323    5.40014427988593
H        -1.59479760451862    9.46382869910858    5.65249653985540
C        -2.97544962154294    7.82855200754029    5.74225168927997
H        -3.73865688184427    8.39405704105489    6.25519847402377
C        -3.19389622309800    6.50241072694319    5.42823087151669
H        -4.13290133026281    6.02566265773538    5.68152984055541
C        -1.31916343964380    3.29888412330721    3.47402228827574
C        -1.63146635843789    2.56720962449743    2.33092884624702
H        -2.65893048020061    2.48703828192103    2.00528033181756
C        -0.63049286824482    1.93996938926068    1.61253503983376
H        -0.88231369953250    1.37637660726576    0.72634884881258
C         0.68761592293745    2.02587728890765    2.02949078383459
H         1.46656608622046    1.53272833833724    1.46742354177705
C         1.00237664523068    2.73532313059555    3.17605041052272
H         2.02567393002455    2.79362452045465    3.51675888450712
C         0.00520218111571    3.36112079039269    3.90080141201172
H         0.25952670485170    3.88853393629617    4.80942444177065
C        -3.96552586260027    4.23744995402645    3.24308991286859
C        -3.87820041938279    5.27212407927260    2.31529613251387
H        -3.04161063694349    5.95665264034383    2.34722868089095
C        -4.86083395478265    5.42578519604777    1.35560550210022
H        -4.78986144245196    6.23243418466805    0.64081477203147
C        -5.93341075616786    4.54919868137751    1.30938778160683
H        -6.70078620815758    4.67487502755395    0.56027319735605
C        -6.01893073349875    3.51229485410814    2.22303378364854
H        -6.85056659670439    2.82472400615219    2.18845014381208
C        -5.03852719089374    3.35515630178698    3.18689855583601
H        -5.10142032583941    2.54403281998564    3.90083072773397
C        -3.47591342942648    1.10394419388130    5.39681583874357
C        -3.50244116227093    1.65333795912252    8.16524651792449
C        -5.11832817525502    3.13229399380528    6.42362419605526

