92
CSD_code = GIYBIC | q = 0 | S = 0 | Stoichiometry = C46H37N3O3PReS | MND = 6
Re       20.94945743550288    1.00131940291155    4.95652987941123
S        13.38737191066616    1.02650009659317    2.01271141371570
P        19.98462979336952   -0.47414239502396    3.17311107370565
O        22.85783194471303   -1.28659193984942    5.81433047190648
O        23.08491877834298    2.27587446455583    3.10748954812374
O        21.83565564869207    2.79304213880341    7.32041941845799
N        19.48262192389959    2.47981188540448    4.36327790407631
N        19.32677009082038    0.20029970172746    6.15800228276972
N        11.73914197441078    1.58440203603585    4.58721263350253
C        19.73849711313420    3.60490046650539    3.70559608120595
H        20.74854799368772    3.93613293815300    3.52875039320952
C        18.55733690571610    4.25653154347522    3.31723482880825
H        18.49620319348192    5.18420862646449    2.78201457441901
C        17.52396289180038    3.47450027646392    3.76538628726006
H        16.47204091857740    3.66220798843529    3.67306851883601
C        18.10990986896017    2.36399059668851    4.43496129553514
C        17.41069176379933    1.40761709820494    5.17702711880796
C        17.97463167045276    0.44542691383890    6.02075013608485
C        17.26472507784019   -0.44319532520749    6.87529226282117
H        16.19798073619052   -0.49886247396753    6.97050840771375
C        18.20354905567976   -1.19389489761460    7.53538314170262
H        18.03783604735833   -1.96179833902785    8.26600657306961
C        19.45258537380761   -0.76790752235988    7.05672313285071
H        20.41894982311744   -1.14426922260081    7.34780844960736
C        15.94221058745596    1.44455607779473    5.05953001182159
C        15.35272254333534    1.21809226909700    3.82031247563255
H        15.96700367618291    1.02980668161584    2.95153271703924
C        13.98097947209843    1.25601992274021    3.66161154403861
C        13.12238164454462    1.52438982147277    4.73457461128501
C        13.73423651885624    1.75835624803878    5.97007695819268
H        13.14118149150309    1.98765546889543    6.83803169818434
C        15.10712036079819    1.71947379958019    6.13197116879325
H        15.53197168570634    1.93118795442877    7.10167243906536
C        11.70373490002202    0.59536685699637    2.34535342948882
C        11.06920083907309    0.94565738294582    3.54265104412039
C         9.71103341048685    0.63181709291590    3.64025557498395
H         9.15569110177209    0.87989282865041    4.52770400538639
C         9.02894030652434    0.00530588403867    2.61156193474408
H         7.97705227211584   -0.20530274497092    2.73264199071838
C         9.68278873392201   -0.35237655182368    1.44894360468287
H         9.15922988376921   -0.84674770381808    0.64621251320756
C        11.02756905699510   -0.05468435376394    1.32684896393809
H        11.56910239957171   -0.30155022681021    0.42626679460270
C        10.95987646250148    2.24697150057881    5.61365522247732
H        10.07276310847279    2.67446574176792    5.13699142285335
H        11.55093543405235    3.08634500133005    5.99231552858383
C        10.53055393497370    1.35447019541450    6.78705526402310
H        11.40765639999095    0.92180338727613    7.27061446428727
H         9.92929436269556    0.51939762112451    6.42438699553412
C         9.72731369790892    2.15182207121138    7.81208667795054
H        10.33492876548765    2.98073520031069    8.18310184439662
H         8.84660082573165    2.58091848645168    7.32816391242554
C         9.28836343277987    1.28175393613139    8.98318433301689
H        10.15286559811080    0.85702966199497    9.48859184259003
H         8.65893179951782    0.46460584776728    8.63768630067566
H         8.72394003845619    1.86837197640468    9.70370522689540
C        18.93711351614077    0.31092192181428    1.90349280926002
C        19.44557545847890    1.49903648841463    1.38219739003558
H        20.39994767057628    1.86539880028301    1.73979202639210
C        18.74287224664125    2.20233016129447    0.42394994985311
H        19.14125992481003    3.12784840405634    0.03591182017843
C        17.52529311035416    1.72139341859766   -0.02975626721257
H        16.96132435606791    2.27737075360203   -0.76351426844982
C        17.03703652760835    0.51800167117532    0.44948822695179
H        16.09623418780334    0.13223720513988    0.08446747572617
C        17.74122695399286   -0.19402922538292    1.40646257152127
H        17.35254530793501   -1.14015527203586    1.75431639382777
C        19.07529267559610   -1.90143808776844    3.84406704323558
C        17.71327169705608   -1.87883289045969    4.12581689285617
H        17.11788065878755   -1.00798745878080    3.89677819049961
C        17.11202660961058   -2.97100519083739    4.72643828715863
H        16.05179855450555   -2.94679578985614    4.93200240641214
C        17.86340090216576   -4.07895422213369    5.07603620543853
H        17.39009000690011   -4.92624209141018    5.54958843869123
C        19.22694998092169   -4.09336734736304    4.82929493533631
H        19.82131206406846   -4.94825640991622    5.11631360863893
C        19.83113753065905   -3.01101187927602    4.22040670583086
H        20.89744977703919   -3.01744892734238    4.03543783061743
C        21.15064250417480   -1.33235441942408    2.05546427021506
C        20.63936481871484   -2.15874486320813    1.05759876812314
H        19.56968171252556   -2.28598653345996    0.96123118255638
C        21.49590880465831   -2.81552419816508    0.19616432496840
H        21.09486023242055   -3.45628043394030   -0.57549073773289
C        22.86736493375142   -2.65244956543651    0.32033031924825
H        23.53462014783089   -3.16621801282796   -0.35563220798953
C        23.37938358568930   -1.83219927593764    1.31035440652389
H        24.44663624496307   -1.70357765092526    1.41138302184656
C        22.52425278779125   -1.17233403035816    2.17680126329689
H        22.92290080101995   -0.53426216240100    2.95460629352013
C        22.15356704512715   -0.43467471726720    5.49935129041945
C        22.29572544344907    1.78817381196505    3.78825622989772
C        21.51052853971173    2.13500662838055    6.44190455989564

