61
CSD_code = GIYGIH | q = 0 | S = 0 | Stoichiometry = C26H28N2NiO4 | MND = 4
Ni        2.72273978908864    7.57204496206815   12.60118269858409
O         4.22790454188112    6.54631369346508   12.69676492401594
O         5.64123276872939   10.43527169301376   13.26334125796183
O         1.14284358155997    8.37897275301079   13.02483251622448
O         0.03615239252277    5.38717226947645   10.32918586844249
N         3.77002638754634    9.22510777362127   12.98154698687269
N         1.78772004155094    6.24728667258338   11.44163230914621
C         5.07006863884690    9.22134276876078   13.11917650242625
C         5.93066256460664    8.10962621284581   13.14364203717320
H         6.97139668056361    8.29456003538096   13.33918452192722
C         5.44606205970618    6.83431271400808   12.95793268441373
C         4.62110457056958   11.41211047133100   13.16026711625681
H         4.80490149984772   12.01710876499167   12.26570219322641
H         4.66392611860347   12.05761939234789   14.04134861624735
C         3.29658531909882   10.61354260353693   13.07039574614058
C         6.38032252480807    5.68223372952107   13.07223535312630
C         5.96245898828542    4.52980527163925   13.73182726267350
H         4.97237503821493    4.49992550030508   14.16199307623158
C         6.81317686045106    3.44723183461324   13.85622883800853
H         6.48251874850483    2.56054114164620   14.37698778992177
C         8.08651623793173    3.49997526852921   13.31442113859702
H         8.75099216452167    2.65371674390411   13.40873924416899
C         8.50587012460907    4.64061692220463   12.64941017326190
H         9.49675737508987    4.68157344990976   12.22109716240884
C         7.66024068017727    5.72828439978165   12.52889686616453
H         7.98430451429673    6.61005301465797   11.99721387295022
C         2.49985282464110   10.98973919128504   11.82208392365690
H         1.61612406424603   10.36209169962434   11.75271914048381
H         3.10351634587067   10.83826361211310   10.92917803288626
H         2.19350388321805   12.03191037614799   11.87454579405845
C         2.45972563250948   10.81594735147213   14.33454248483769
H         1.56912415802902   10.19995830341497   14.27977752783799
H         2.16768373841827   11.85999759337660   14.42312278383972
H         3.03361567272355   10.52912398698945   15.21357396620128
C        -0.06677870622172    8.11593345739422   12.70437965212053
C        -0.45004986896803    7.13716581109801   11.81506003891930
H        -1.48301894373772    6.97487737392500   11.56566179266857
C         0.49923413964183    6.28491347493214   11.22374916344713
C         1.14466723149012    4.66879710468757    9.81866662173512
H         1.24378300767565    4.89078490872883    8.75051319300416
H         0.95672380703454    3.59930563279581    9.94387829120155
C         2.36397585015773    5.15955981017589   10.63877309528197
C        -1.11287647716420    8.94035119960448   13.36707785795707
C        -0.98406702398808    9.24508591113094   14.71923456997141
H        -0.13412381940603    8.86373758236413   15.26546812530364
C        -1.94497892314362   10.00482707064617   15.36001224157006
H        -1.84019003275731   10.22906124574311   16.41143228813941
C        -3.03939251332747   10.47711482673603   14.65507764587828
H        -3.78931892022005   11.07303653341666   15.15414106281802
C        -3.16947283637006   10.18474665816344   13.30720379871197
H        -4.01961060483653   10.55690953665486   12.75425922052418
C        -2.21395959332217    9.41908281820859   12.66425374452772
H        -2.31024746921370    9.20539339939659   11.61055455011951
C         3.47168136345930    5.69141023730689    9.73063387451813
H         4.27860766637088    6.09086635214026   10.33808809572550
H         3.08895936163381    6.48806981216768    9.09542612719077
H         3.85919781861080    4.89017305231604    9.10566376989537
C         2.88790116485578    4.04343965824253   11.54384515350819
H         3.69775115176772    4.42539706624871   12.15529615477178
H         3.25510033069089    3.21703305430398   10.93937977079376
H         2.09299630800040    3.68494423987620   12.19493968931698

