72
CSD_code = GIYNEJ | q = 0 | S = 0 | Stoichiometry = C35H23BClF10PZr | MND = 12
Zr       16.87039512852434    9.21492710194594   11.98696768920466
P        16.53658182628199   11.95060240925649   13.84668825003096
B        14.56761699299624   11.89409077609333   14.04542492862391
H        14.14460760112270   11.43264716471733   13.03790740458436
Cl       15.26915200759777   10.34369411624325   10.71863331975383
C        18.38863051505627    7.88279146042063   10.44252862194177
H        18.30880797455620    6.82654767179122   10.21874254538025
C        19.20967592845441    8.45945072496062   11.43640312097679
H        19.86636127606344    7.92173263640078   12.11030465631736
C        19.19263625432038    9.86349715030066   11.24757293365266
H        19.85922144308027   10.56997328291575   11.72428187524422
C        18.33879971627627   10.14842679668347   10.16125958317662
H        18.17935889976263   11.12089466706956    9.71342728708189
C        17.83582513329743    8.92374850281330    9.67032996227204
H        17.22608097384987    8.80414769775222    8.78248835772732
C        16.73573366967871    6.76054392588753   12.63630462880385
H        17.51864438141001    6.02175653628855   12.52208895074230
C        16.48765440301349    7.50625727699633   13.80421493410021
H        17.03991216345592    7.42298698298388   14.73232753674876
C        15.26439067525181    8.20371671983799   13.62390783298486
H        14.72853799170985    8.75770056046211   14.38252195637315
C        14.76329538686953    7.87637719959963   12.34935665648691
H        13.79813171404119    8.16900388813741   11.95646155931850
C        15.68463812777698    7.01031727223335   11.72273899446212
H        15.52844271685533    6.50652523375385   10.77490891245690
C        17.52569197723332   10.44453201572302   13.76069780598879
H        17.40877638460968    9.89197343743569   14.69734507415038
H        18.57441491872677   10.77594706331594   13.72425229106197
C        17.02455398465466   12.75729650998456   12.26883070227117
C        18.37859796555738   13.04733351898764   12.09031700449469
H        19.08794185189260   12.81526980480248   12.87493440043861
C        18.82151560778759   13.67530594567887   10.94140941760649
H        19.87218804106825   13.89194398678422   10.81668021297022
C        17.91509064670215   14.03476923600131    9.95565247808510
H        18.25973639688418   14.52444482682514    9.05727679055073
C        16.56714834142907   13.77929621710459   10.13697962688013
H        15.85303129814228   14.07323963406418    9.38324703477986
C        16.12115264395964   13.14958387782563   11.28839016456396
H        15.06979052166161   12.96097259149858   11.41300796294231
C        17.32262797899720   13.15856451800240   14.97795795728580
C        18.06677300681158   12.76031842586923   16.07991447789595
H        18.21422510083673   11.71032625063351   16.28070256123235
C        18.60998253518915   13.70684632863649   16.93123998896449
H        19.18286622500498   13.38921543501818   17.78956433177701
C        18.41395926398118   15.05549979044263   16.69006428239471
H        18.82947524120236   15.79219219723502   17.36063336943185
C        17.68219713088173   15.45998372645919   15.58503305650737
H        17.53000493989626   16.51134762615620   15.39089849497620
C        17.14057060436981   14.51771060216263   14.73171166125416
H        16.57603209102597   14.83351197156082   13.86388411934671
C        14.09281075957684   13.43218255465509   14.29380880808132
F        14.91985742097764   13.37940521357104   16.51059391498096
C        14.30900701883949   14.05690000190510   15.52050312580769
F        14.17932320187404   15.90678345619675   16.99132461894484
C        13.91632361160477   15.35974290621131   15.79768557003091
C        13.25402380997329   16.09690396191237   14.82389563286439
F        12.88050581276373   17.35736795821869   15.06385610774004
F        12.33295652741846   16.18717934662204   12.65275699098580
C        12.98267189128706   15.50000933880989   13.59931915672208
F        13.08661609780093   13.66771172180345   12.16810366561902
C        13.39398912870874   14.19203799818921   13.36074063632874
C        13.98062882078688   11.06297376097554   15.31002565261136
F        16.04708903111609   10.52989318653109   16.29702781484484
C        14.70096166596468   10.47547271021071   16.33831310215146
F        14.89182766748378    9.26088421685236   18.35918137660198
C        14.12130471396063    9.81604012749577   17.41516679225827
F        12.15477516713228    9.10327603829422   18.52138017788507
C        12.73781469794806    9.73366516350830   17.49840618470802
F        10.63597351725337   10.25840600157845   16.56181053941331
C        11.97018916015557   10.31998875532778   16.49756990486691
F        11.81108360375113   11.52622021030621   14.50593324996117
C        12.59538907612357   10.96757207592754   15.43837920908870

