66
CSD_code = GIYNAD | q = 0 | S = 0 | Stoichiometry = C30H23ClN4O6PRh | MND = 6
Rh        5.18928379289373    4.71034189614757    3.95858127473395
N         3.32579868554439    4.57365312262833    4.42558313931725
N         2.95492013502898    4.11339681148819    5.53854961308485
O         5.51122975054518    5.61501096808350    1.89982879906292
O         7.13235348098393    4.92129721180402    3.07409939957997
N         6.74160235020466    5.45520009157913    2.00501949424770
O         7.50738648645638    5.75251983815203    1.13712826357579
O         5.10927722776772    6.69273016105841    4.60905192536200
N         6.11013924141072    7.08771673838336    5.31783722691078
O         6.11745836456495    8.23335519590087    5.67546679573344
O         6.96551904082071    6.26805024607480    5.58019137075757
Cl        7.55842258392931    2.63009657285034    8.76940476449859
C         1.14084469327927    4.15903845182705    3.48316996149137
C         0.17765820413806    4.44728044622994    2.53795830246255
C         0.38480342666579    5.46467974644110    1.61722758096352
C         1.55606751700556    6.20617699317716    1.65078215882980
C         2.53471472414439    5.92623329965485    2.58602188166773
C         2.33242407832511    4.88933446786669    3.49869247951458
C         5.28565854676023    3.93297118535761    5.79521255283347
C         6.38559905231317    3.59261037912257    6.55687975405688
C         6.18988875173920    3.07955554223967    7.83319394321373
C         4.91453717670642    2.91370297899301    8.37760423314102
C         3.81070473014470    3.26433433252726    7.63746642140591
C         3.99193525243445    3.76738988405866    6.34421143478981
P         5.27937037405286    2.60014503826815    3.10603884258761
C         7.84898618536866    2.07073556689778    4.04197668684996
C         8.88906621484049    1.24515905129703    4.43265048565610
C         8.72898610895622   -0.13038130472417    4.42088781991215
C         7.52874015390911   -0.68497619388973    4.00441528178847
C         6.48364189670642    0.13139744575958    3.61396450134664
C         6.63648860635291    1.51631269139673    3.64273640727894
C         2.77134137906315    1.39853556992284    2.56210683369979
C         1.63712573235025    0.70000991801291    2.94056115533680
C         1.51472457236490    0.21198396121595    4.23011141610878
C         2.53939133081003    0.40817459135016    5.14340291298833
C         3.67548419714075    1.09916274804811    4.76996265511225
C         3.79779517237168    1.60419994907148    3.47587201614741
C         6.44106910254305    1.97240841453306    0.62307717182000
C         6.53475566051049    2.06869130873245   -0.75446759624299
C         5.60621512084376    2.80788213238769   -1.46735385183990
C         4.57796440961094    3.45818125439367   -0.80293973137327
C         4.47789629480090    3.37081081255279    0.57228405552131
C         5.40567364062900    2.61618059094146    1.29182442305933
H         1.00446127584112    3.36939186953862    4.20600237017464
H        -0.73860231913829    3.87691882919794    2.51742527700886
H        -0.37146570313163    5.68375905135886    0.87866565410668
H         1.70795572863474    7.00984200847810    0.94703386130508
H         3.43677270958999    6.51992355283022    2.63723185952506
H         7.38539507603193    3.75562424479489    6.18701055210282
H         4.80945630835866    2.52179402469285    9.37673230985789
H         2.81130169395060    3.16482769787466    8.02919600562574
H         7.97649716503330    3.14301089172248    4.03239258295438
H         9.82667942948643    1.67860322081129    4.74576737357933
H         9.53981204344631   -0.77264718528492    4.73024730789497
H         7.40603828953589   -1.75773081767241    3.98249076499197
H         5.55004359795333   -0.30357015082912    3.28515337380866
H         2.85971525862349    1.76961323805301    1.55189141284169
H         0.84607951075738    0.54052719035080    2.22315965593261
H         0.62536579702343   -0.32526547302109    4.52296985591625
H         2.45334220829464    0.02214288570530    6.14778236578994
H         4.48284519106417    1.24145585378575    5.47562996250260
H         7.17631808028536    1.40763694589175    1.17798651569734
H         7.34446693494113    1.57400949734818   -1.26928768978956
H         5.69154218041153    2.89005076546703   -2.54023805451532
H         3.86301042511317    4.04954051601804   -1.35467254731364
H         3.70032567087114    3.91295123507780    1.09555497300339

