26
CSD_code = GIYPEM | q = 0 | S = 0 | Stoichiometry = C11H10Cl2N2Zn | MND = 4
Zn       -1.11918434665319    4.85473220753712   10.38545579393370
Cl       -1.84204627018317    6.83580872344029    9.67778178207870
Cl       -1.38559413048085    3.72408775609464   12.23828261186443
N        -1.43012272774712    3.54137373816512    8.73628867672833
N         0.94191074962271    4.80911847770932    9.84397217437851
C        -2.20097486090154    2.46278172382324    8.79787714919945
H        -2.66823944077764    2.27234992453942    9.75373498658919
C        -2.39729785037125    1.62515934813727    7.71494428024165
H        -3.03597079027546    0.76160322391752    7.80318769322939
C        -1.75591325389575    1.92820656952582    6.52340186277136
H        -1.88475997514297    1.30269422140758    5.65283054546235
C        -0.94144432567456    3.04577439838898    6.46921987988369
H        -0.42431532443033    3.30598640553069    5.55873683300320
C        -0.79817634657888    3.83990076975016    7.60241646004054
C         0.07238001152326    5.06191794845075    7.59724371136286
H         0.43659406775628    5.26017427373437    6.58999963100227
H        -0.54130754276314    5.90652074442592    7.94101480390456
C         1.22537019795911    4.92631314205866    8.54779145194750
C         2.54130879313926    4.92200107036431    8.09653805352641
H         2.75091686857456    5.02214820280725    7.04289927472671
C         3.57132473409062    4.79492357094975    9.01200895887791
H         4.59941164499565    4.79576534929948    8.68214156938692
C         3.25848897814688    4.66177132500839   10.35641394971162
H         4.02866655651564    4.55447803393245   11.10261575255449
C         1.92535705608424    4.67225547354900   10.72458435865234
H         1.62171752746716    4.56445337745246   11.75631775494172

