97
CSD_code = GIYQEM | q = 0 | S = 0 | Stoichiometry = C41H35BF15N3OTi | MND = 10
Ti        9.71890067990418    4.05832568032062    7.96291718437049
N         9.05176120012817    2.16215324543162    8.12676448681645
N        11.70185521492666    3.47958706276571    7.99777058239777
N        10.47380443539469    3.83698540508903    9.78651069043504
O         8.20848780012873    3.25647789692822    8.30038720001881
B         8.38325425173709    0.98849302669432    7.30637883768271
F         9.68559526398998    3.19076385962689    5.85103666528420
F        10.24272548361706    3.24405167201674    3.24406956404851
F         9.68584376537935    1.06934393480876    1.64335026032216
F         8.55746495752603   -1.14900220286903    2.77278777303913
F         7.97508850084880   -1.19906364834867    5.38481974313069
F         7.08735933716147    0.79920135949636    9.82629477467351
F         4.51555270939103    1.34918617052683   10.39571111525438
F         2.80155088415856    2.11697990043745    8.40239376011613
F         3.74204208157270    2.34355022242263    5.84302450624277
F         6.29649686462590    1.80684383403809    5.27909656458053
F        11.08851131337977    0.53867719529501    7.93813535329746
F        12.19149677397434   -1.67908357451818    9.02031958447287
F        10.61824970480411   -3.84937631239181    9.59118830310171
F         7.94129106826255   -3.74131207451031    9.06559983960801
F         6.85003710876370   -1.53269342543296    8.00687393485306
C        11.65029390372665    3.43619133690083    9.31641285312133
C        12.80230970054196    2.99913025596216   10.15927769591115
C        13.03349808344854    1.64711060443586   10.39406481968892
C        14.11702407100479    1.24069723022298   11.15297641515473
C        14.98783772843585    2.17793785904364   11.68130681718642
C        14.77220795490760    3.52486400292747   11.44412559939690
C        13.68932834115478    3.93364743232531   10.68594206493673
C        12.91613605492804    3.05646990445594    7.31086997179805
C        12.59165645576655    2.58528378162239    5.89532994849088
C        13.95897256855233    4.17933494501214    7.25203164380684
C        10.01957290379178    3.74219812536593   11.16401046758619
C        10.92161086228698    4.46540224176741   12.17574476390811
C         9.80647889144078    2.29217994877833   11.62731719106632
C         8.16425890535379    5.80897279397119    7.89607044573117
C         8.68461669899982    5.62447691736732    6.59007926050993
C        10.07810472466473    5.92309825463825    6.61854389583840
C        10.41538254436098    6.28950712324445    7.94901130752139
C         9.22884404582310    6.22339395457703    8.73717485228813
C         6.71799852780383    5.74312748687202    8.28393173416405
C         7.84862935657038    5.32911581041002    5.37806214390639
C        10.94303971570229    6.09737157249121    5.40300048622696
C        11.70009723038739    6.90032454420974    8.42876896218301
C         9.05332833263076    6.82897808419665   10.09670336934261
C         8.78921364455253    0.99403495228948    5.72526637325756
C         9.37693790426449    2.08121255560985    5.10608822424479
C         9.68176138313407    2.13869709617409    3.75269054825377
C         9.40164932016459    1.04470966523342    2.94571738542143
C         8.82416577168380   -0.08117041561793    3.52645409438572
C         8.53119975212134   -0.08989908350847    4.88651234178036
C         6.77995939386075    1.21306892371782    7.52400687308636
C         6.26559484280127    1.14330185713752    8.81614580014237
C         4.94623737159913    1.43056085118992    9.13164803514224
C         4.07474687816302    1.82527853283387    8.12279544371695
C         4.55428054291321    1.93331474708167    6.82484289082129
C         5.88628693569534    1.63597145587731    6.55173524038452
C         8.93026416098629   -0.41004116125300    7.94906407827924
C        10.28835873597867   -0.51736116714187    8.21933489474488
C        10.87521448281387   -1.64908025084459    8.76749990594949
C        10.07857728398960   -2.75013308132531    9.05972620320710
C         8.71595668765787   -2.68938859331297    8.79158659581686
C         8.16557783451418   -1.53273347973547    8.24422952853934
H        12.36926762975875    0.90937965366626    9.97353203145742
H        14.28017212931969    0.18766193460147   11.32507691477566
H        15.83313555624943    1.86063347985650   12.27275547094708
H        15.44924279093046    4.26202031973501   11.84955684424293
H        13.52548547771453    4.98798803581487   10.51224631901974
H        13.36007021219608    2.21080176109964    7.85805741220983
H        13.50375681541636    2.25176146980748    5.40618360184948
H        12.16681890672526    3.40110714989244    5.31486071833114
H        11.89503066231560    1.75148095722993    5.92839587826237
H        14.86260160300187    3.81258625047698    6.77147027847690
H        14.21666625116471    4.52318200531413    8.24973808426989
H        13.57877795102449    5.01912472602467    6.67651254610195
H         9.03776639856724    4.23650002156645   11.16355651889485
H        10.35621198083879    4.66870482586987   13.08180981180018
H        11.78059761691932    3.85412935012236   12.43838156006077
H        11.27710925518191    5.41075246068962   11.77380692583162
H         9.50900309342196    2.29304531835705   12.67321852168277
H        10.72512159240950    1.71783057042220   11.53331396417079
H         9.01463897578461    1.80709200600589   11.06021917999132
H         6.59763271068265    5.27812044829909    9.26139916710309
H         6.29745801256037    6.75030672633584    8.32734939616287
H         6.15105703099160    5.16353590347635    7.55936926089826
H         8.46489704345649    5.20787852711021    4.48975845010323
H         7.16009303418811    6.15653796445431    5.19598397346882
H         7.25215762847075    4.42502736224189    5.51795093642718
H        11.99942360520514    6.00727358269037    5.64604703480892
H        10.78197654506933    7.09391706353298    4.98325123393958
H        10.70646366667317    5.37236957066483    4.62648560421608
H        12.08091622851206    6.37793857697227    9.30784648282701
H        11.53094715890690    7.94352476314962    8.70550592369761
H        12.46478583505491    6.87709057874470    7.65704048427573
H         9.96804634440115    6.77758835294908   10.68069884090820
H         8.78683520618960    7.88350498546695    9.98375574068081
H         8.25040385534072    6.34412626830579   10.64819050449960
H         9.27715126651085    1.80883018601103    9.06244249292939

