109
CSD_code = GIYSIS | q = 0 | S = 0 | Stoichiometry = C52H46BrN3O6Pd | MND = 4
Pd        5.12530084621058    0.15157990755124    2.83019584414998
Br        4.77458566725523   -1.16383119026320    0.81380832159403
O         4.42928682654133    3.07188766194165    3.58672470644893
O         6.59860971531259    2.56115522567209    3.19320902263084
O         8.47570423634059    4.49197368757851    7.25017111015797
O        10.32600919008985    3.25654533984214    6.94680941518704
O         7.11781665044099   -0.35507854339574    2.64977408632034
O         9.30406319946033   -0.34532555740474    3.00584891310475
N         3.22990879300104    0.68879269455501    3.11652660820361
N         2.91498185745094    1.56251314046395    1.02156270825638
H         3.34800884339802    0.70342750088898    0.67143821576160
N         1.79530591569005    2.48993128113056    2.88006598685742
H         1.98755409469603    2.70877069695168    3.84981750722693
C         2.65948693585363    1.59167162404760    2.34782187079486
C         2.89273459681233    2.64318400913728    0.12794595568118
C         3.20956418763278    3.92816836916385    0.55303726932934
H         3.49471324325396    4.09036933815084    1.58083400296313
C         3.18226327636713    4.97970457760674   -0.34285939525398
H         3.42112921054468    5.97694440274789   -0.00524287296547
C         2.85851397213351    4.74795467343706   -1.66783814910171
H         2.83095398481227    5.56676256368457   -2.37098730753079
C         2.58459278619370    3.46014969602984   -2.09612222250492
H         2.35064098594705    3.28138715126612   -3.13568305714860
C         2.59850731599926    2.38913362301534   -1.21613301309009
C         2.30960991613315    0.99420550165538   -1.67639310298274
H         2.02654093137822    0.99008847735626   -2.72516926910024
H         1.50020735787803    0.55386820044108   -1.09615125735743
H         3.18486786650128    0.35503551869006   -1.55502610026782
C         0.92194229088578    3.35088481307747    2.20900804806583
C         0.17204667394465    2.89358813932364    1.13133556518854
H         0.26817109328209    1.86648005035245    0.81512914532089
C        -0.69254609133415    3.74790435641595    0.47518963132263
H        -1.26273998101996    3.38894114147170   -0.36776450314646
C        -0.82753105164369    5.05609662531676    0.90499362907998
H        -1.49885660432093    5.72910690307106    0.39381979115525
C        -0.10439790771934    5.50042600423449    1.99845727293559
H        -0.21859122929257    6.52058294430854    2.33594521388130
C         0.77626805463439    4.66504792502376    2.66765614027691
C         1.56421066689285    5.14789190080591    3.84864502636026
H         1.50732721031370    6.23050637960178    3.92584170081858
H         2.61089139669360    4.85759206956488    3.76710233464063
H         1.16799367289297    4.72220098201369    4.77306788608220
C         2.97531861902347    0.66066193544929    4.50724868004260
C         4.09895265283361    0.83438938133095    5.34375238279204
C         3.93784187520506    0.64083940007458    6.70827141998994
H         4.77925353800353    0.69541807793752    7.37752771989192
C         2.68796869095930    0.34844924706293    7.23172322615237
H         2.58269720265231    0.20496480793046    8.29641853314643
C         1.59184881858502    0.21888181504793    6.40520352776806
H         0.62649933436080   -0.03136083211460    6.81983165350277
C         1.71803444413836    0.35499750012013    5.02491811555629
C         0.54372129924358    0.08266756012983    4.13218982364933
H        -0.13614194251260   -0.61474125530954    4.61596940537663
H         0.87357804325996   -0.34736174481677    3.18808971753671
H        -0.00877979700270    0.99708906721034    3.91384925773969
C         5.38724807439851    1.15199858150681    4.65597159665374
C         5.37536202962633    2.30910564790901    3.78726785200777
C         6.61047064225883    3.65271999887902    2.29118296786266
H         5.97244940243621    3.44660006727964    1.42520709241009
H         7.64531864472263    3.76925470531743    1.97609259510501
H         6.25696552420123    4.55952190331669    2.78828689465533
C         6.69056704010213    0.86873439752821    5.40295013975834
C         6.64206250711564   -0.49460599836186    6.10134696545443
C         5.94861869693868   -1.56360852034764    5.54114059294303
H         5.37392748528729   -1.45340566727416    4.61057317115351
C         5.96284661260353   -2.80578979869913    6.15125169136567
H         5.41353098607925   -3.62151470348189    5.70566885573518
C         6.67685840961657   -3.00477303135786    7.32002263228442
H         6.68243345355327   -3.97385881644913    7.79549062067678
C         7.39207730352059   -1.95421644785130    7.86688707361990
H         7.96563533451973   -2.09962133392747    8.77039142527421
C         7.38159412920297   -0.71247427445478    7.25756758042081
H         7.95899022209769    0.09433032943105    7.68258861021183
C         7.04272497889487    2.01268993038230    6.33610939949342
C         6.17994237725264    2.63712507809532    7.33912559901777
C         5.08722167116100    3.41585228100877    6.96325363456428
H         4.85752472008386    3.55554610857956    5.91992363751338
C         4.30730115805790    4.02998041269547    7.92438958743997
H         3.46653615103704    4.63527507672799    7.61928091861256
C         4.60125634285616    3.87848744860932    9.26844634170690
H         3.98703869829313    4.35734287892257   10.01646388483755
C         5.69533426632354    3.12108455471253    9.64902371279065
H         5.93996684756187    3.00805736344886   10.69504615781849
C         6.48548787991659    2.51260048319865    8.69272632264345
H         7.34219692684926    1.92840470534936    8.99679811294264
C         8.32674186943390    2.40344589121033    6.11214578941487
C         9.01070294281896    3.49987218832908    6.82181069718635
C        11.08709830226203    4.26879210348376    7.58390219129305
H        10.96310730742953    5.22050891824329    7.06305510908295
H        12.12238681551176    3.94054732696356    7.54040908069785
H        10.76439140805823    4.39301760507744    8.62008676844540
C         8.91213605523922    1.61743645625304    5.04657372322917
C        10.26673347731241    1.84212509469515    4.54180256379310
C        11.25155696261292    0.86933893380765    4.66812265157368
H        11.00996353874412   -0.07171427243566    5.13838641216557
C        12.53101545264516    1.11484040654948    4.20519646792719
H        13.29387907115846    0.35729350547133    4.31057832747408
C        12.83681945105735    2.32656890729255    3.60869426754853
H        13.83646974358810    2.51474702763160    3.24565484776780
C        11.85881766585829    3.29906792854761    3.48104296662298
H        12.09413760927695    4.24578725692287    3.01687005243156
C        10.58100032153365    3.06272222746738    3.95153740940544
H         9.81372105995725    3.81823896035147    3.85656994582080
C         7.95851823020918    0.77309175285244    4.56350746519654
C         8.06383975877588   -0.02045753083053    3.36277037900493
C         9.43969650316431   -1.02626775713072    1.76412547060217
H         8.92873396266190   -1.99086041089568    1.79896943639843
H        10.50740597925601   -1.16245098481536    1.61620136076353
H         9.01089461855595   -0.43344966226676    0.95360480667511

