89
CSD_code = GIYSEO | q = 0 | S = 0 | Stoichiometry = C42H38BrN3O4Pd | MND = 5
Pd       13.21215125672177    1.51691413687267    2.53826427783488
Br       14.27745525680529   -0.47713548291013    3.19204204820721
O         9.74060440787447    2.61981504467299    0.85777495429883
O        10.61502739444065    0.95650153908430    2.08765681856210
O        12.89696824805841    4.36438256470504   -1.22951009722969
O        12.74175129097377    2.29812966331185   -2.10958940828191
N        13.19781054547315    2.61749881637766    4.51318961351673
N        15.36925256644490    2.14968792239838    5.03174925769634
H        15.14934902249459    1.20980089822543    4.69825440056735
N        14.44004420999057    4.22451322155428    5.66580969359354
H        13.72758637259854    4.89203387170501    5.40134519742577
C        14.31750379267628    2.99597194858841    5.07793319620141
C        16.73299510252356    2.41959248078880    5.21272201570527
C        17.28127024891041    3.65917684854515    4.90617542603224
H        16.65431694643225    4.43759139086191    4.50264562448410
C        18.63004835155722    3.89277482673236    5.09463556146119
H        19.04186909307839    4.86219298625345    4.85757771530103
C        19.44389622324281    2.88496079962906    5.57835507016599
H        20.49778561017498    3.06207093305381    5.73024549421295
C        18.90226432342732    1.64278137389831    5.86009629457609
H        19.54117167201685    0.85371263778756    6.22904303132714
C        17.55120732325415    1.38537831176563    5.68605940031234
C        16.97719636288433    0.03960630833673    6.00173753867007
H        17.73219876117216   -0.59734695810767    6.45334644997511
H        16.61198064270788   -0.45129516339794    5.09913907610454
H        16.13904445740626    0.12419322340370    6.69181676747110
C        15.24894081579540    4.58703838231355    6.74988635841979
C        15.70665313815599    3.63936770771245    7.65916786575338
H        15.42515917794342    2.60469610484232    7.54521496392767
C        16.51043768988379    4.01894062124758    8.71635524036957
H        16.86711641997027    3.27223366740083    9.40880697263983
C        16.84569904024465    5.34982026249841    8.88777076149998
H        17.47512821552490    5.65145539024960    9.71067087870090
C        16.36050810349039    6.29767387629547    8.00385373006627
H        16.61136281020450    7.33898596587877    8.14551745151541
C        15.56131118628289    5.93964138098740    6.92970089530560
C        15.03851577799938    6.97389109321375    5.97828921197659
H        15.28429190550245    6.71451755154741    4.94902786199196
H        15.46753518986710    7.94654192201271    6.20320064713216
H        13.95240067018789    7.05926630667448    6.05433425701920
C        12.02030548681089    3.36535371944185    4.65561280404272
C        11.28844598677929    3.64615255216347    3.48523938210612
C        10.11817645805811    4.38795562723000    3.54678839555821
H         9.57466998713495    4.59219619413186    2.63620106781791
C         9.65895118556781    4.85254190365173    4.76618308796220
H         8.75951108746306    5.44659266406384    4.81499126687437
C        10.32636709321356    4.50218441767168    5.92510495602542
H         9.92730525753513    4.80195364732589    6.88354387257277
C        11.49389355544641    3.74914322123597    5.89908754284838
C        12.09775560008381    3.29585844505932    7.19672203512424
H        12.72183857989948    4.06860298621933    7.64706228736473
H        12.70443857415667    2.40401813347478    7.05314348421896
H        11.30332057163886    3.06144227597159    7.90281781197594
C        11.70196808198572    3.02157989536756    2.20524197419756
C        10.58578606514047    2.21065319622552    1.60671453935666
C         9.54964235427113    0.10171032345945    1.68106571857150
H         8.59043113359261    0.56949095129868    1.91190120407733
H         9.66989843114770   -0.82428238281046    2.23813378075499
H         9.60721006559186   -0.08238532333706    0.60585911063202
C        12.82800331326710    3.29063557133833    1.46469997583357
C        13.83113128197119    4.31176423944849    1.80507061389017
C        13.46777880382998    5.61764778404443    2.11838137646801
H        12.42319573568564    5.89088298966541    2.13208338550013
C        14.44521355235935    6.56233833139918    2.37442506455045
H        14.15882578160340    7.57927896190391    2.60072416247424
C        15.78560307908766    6.21383967216927    2.32461822650703
H        16.54581863174981    6.95905558097524    2.50903428460903
C        16.15286132074971    4.90878727733243    2.03379489685120
H        17.19644414799638    4.63302991931952    1.99812709420678
C        15.18225949830669    3.95800630296949    1.78001719913308
H        15.47082119330729    2.92925441906823    1.55297811012146
C        13.01231054756153    2.48976349574420    0.20519496561582
C        12.88632180385855    3.16315852408657   -1.09266049642920
C        12.58444889703747    2.87804245490146   -3.39430821168028
H        11.66326637862979    3.46330478809226   -3.43549333190875
H        12.54277460892565    2.04880584993016   -4.09581427140801
H        13.42724907620096    3.53485294781872   -3.62142843937889
C        13.23449330256461    1.21256849179229    0.55724022986267
C        13.47701459136683    0.01461620772949   -0.21213226996608
C        14.40226384180208   -0.00389979221499   -1.25800167189779
H        14.95852707957372    0.89160070685428   -1.49150132871099
C        14.61053552423436   -1.16602233711038   -1.97382542632070
H        15.33088086594721   -1.17507815971919   -2.77890092079112
C        13.90551693313470   -2.31792958553888   -1.66292213232840
H        14.07297681863394   -3.22263421735741   -2.22831629247353
C        12.99854442758515   -2.31232732816391   -0.61502346410294
H        12.46204194922933   -3.21381221661060   -0.35854153317430
C        12.79358373144997   -1.15992589650358    0.11564982421248
H        12.10966810253189   -1.15544180810993    0.95610354410611

