118
CSD_code = GIYTEP | q = 0 | S = 0 | Stoichiometry = C55H52BrN3O6Pd | MND = 5
Pd        8.00432787740763    0.67954977393081    3.73808142991804
Br        8.57303129062468    1.60157046000146    1.58952744318572
O         9.36564505465086   -1.54188018238907    6.69081361480109
O         9.21051704676348    0.68565821458443    7.00639222977373
O         4.64413184762754   -3.10388162555522    1.75741555342936
O         6.51123412142052   -4.05826728257926    0.93058266297764
O        10.36730320196177   -0.19991478349879    4.48689258546225
O        10.78723633066685   -1.57846280626689    2.76897397571977
N         6.93100701216671    2.19568769131917    4.73435529300827
N         8.11833455458099    3.95272736188397    3.78949805365568
H         7.75401953935862    3.62136851733041    2.89625773530905
N         7.82179187933935    3.87911048895841    6.08857289186937
H         7.74176891504747    3.27890522033384    6.89805491836909
C         7.60348370607887    3.30261124808998    4.87773144920198
C         9.52982084019462    4.15148444191142    3.75265940719195
C        10.37067492294794    3.21770908652113    4.34738077225905
H         9.95317436269417    2.32340154076959    4.81675560667682
C        11.74146467313626    3.39596584630713    4.30282438924617
H        12.39429426288633    2.66107451975600    4.74928140158825
C        12.26857347173522    4.50181177950027    3.65997964166641
H        13.33771252399501    4.64787353304034    3.62506578299914
C        11.42739774947162    5.40477685575216    3.03411053118728
H        11.84651800078634    6.24812558988065    2.50520416336044
C        10.05025695274788    5.24106970160650    3.05645585334235
C         9.13893568875500    6.16356523390714    2.31352142521779
H         8.73705790543069    5.64733451032202    1.44165775746583
H         9.67408165149065    7.04722201549253    1.97767421464119
H         8.30463355022180    6.46637527581312    2.94063918710674
C         8.32276612066170    5.18199633975599    6.27111000724493
C         7.74077659133622    6.23953425381607    5.58243485074022
H         6.91381229572403    6.04146999574128    4.91763269226065
C         8.21593426898196    7.52569806871823    5.75284082738860
H         7.76214864592041    8.34212632265888    5.21196945607690
C         9.26544890750878    7.76282181169578    6.62304084303933
H         9.64221686514693    8.76488492329088    6.75892399305508
C         9.82877082388655    6.71200595794073    7.32463927795232
H        10.64521578116633    6.89959237350005    8.00665594568822
C         9.37149197840735    5.41265402424340    7.16405499863317
C         9.98039091043411    4.27292855449892    7.91949460225783
H         9.29940136172195    3.92326059437963    8.69785863851993
H        10.90877220598278    4.57932061088249    8.39378571318390
H        10.18498059776648    3.44454293242132    7.24521908470890
C         6.20114376623491    1.63367985819556    5.79992809314688
C         6.54116716653030    0.34012448215641    6.22423154448617
C         5.88413043655412   -0.23689615610851    7.29936975461404
H         6.17102431975948   -1.22386295528721    7.63137754778589
C         4.84598659484776    0.44397639849533    7.91044137411289
H         4.31851634275411   -0.00930928960894    8.73576855126792
C         4.47062773403041    1.69374061849726    7.45008824119245
H         3.64318092102887    2.20809286598994    7.91696849947094
C         5.13340829793439    2.31200112648343    6.39869532087087
C         4.69330728959599    3.65677831905627    5.90535564805596
H         5.23062203834512    4.45601006495527    6.41783682949102
H         3.63053985538513    3.79260788820971    6.08993019467133
H         4.88084761054610    3.74807958584106    4.83712132183060
C         7.68060464481084   -0.32460869347188    5.53295043375133
C         8.87745319088948   -0.47234188064935    6.41575646835119
C        10.26973074192783    0.60343005401785    7.96468524851604
H        10.21172403712691   -0.37491608796648    8.45293871999366
H        10.06791920358152    1.39114505028001    8.69432688683592
C        11.63094468068568    0.77693561594831    7.30904026255716
H        11.71811122157046    0.07944272339971    6.48005771358853
H        12.41452156191307    0.57503809354124    8.03395808637703
H        11.75108218157655    1.78723701539832    6.92659702892496
C         7.53238465293860   -1.22720327217105    4.46475037371775
C         6.25866374079042   -1.88059843022641    3.95186922105252
C         5.75442649827978   -2.94136763666564    4.91383132035254
C         6.57177107359161   -3.43249580251375    5.92525747589166
H         7.57303458018612   -3.04946047336261    6.06046531594532
C         6.11243128940073   -4.42553464273916    6.77426013544776
H         6.75764742423387   -4.79224195710478    7.55940264316281
C         4.84116082090157   -4.94751164424721    6.61675593274016
H         4.48526345599148   -5.72151181924087    7.28097516112062
C         4.03338990081152   -4.47924052971442    5.59416073516914
H         3.04489325060724   -4.89101265194988    5.45270765063474
C         4.48560023362446   -3.48534800967675    4.74545376478590
H         3.86037037322552   -3.13872654978407    3.93762526542524
C         5.25246827071856   -0.77779292490600    3.64198476718183
C         4.20016011959482   -0.46778872588509    4.49146714930114
H         4.02185836564454   -1.06125688234279    5.37527865971880
C         3.37462486296993    0.60966503827245    4.21744337904531
H         2.55647345968375    0.83155087650268    4.88681558790434
C         3.60104103835777    1.40237661472280    3.10708082672775
H         2.96171019779914    2.24928464711886    2.90493454056222
C         4.64036605165084    1.09438437959616    2.24491213080372
H         4.81434583251900    1.69152466392575    1.36152021921574
C         5.46113966900515    0.00806018803825    2.50429548691202
H         6.21190341298519   -0.27879427817020    1.76950571406976
C         6.75542583610865   -2.56990090181761    2.68979459546251
C         5.84584953533215   -3.25541923326640    1.77443168028362
C         5.78405412698948   -4.68663337808507   -0.12076323904756
H         4.73336723104035   -4.38411213524519   -0.05355962399898
H         5.86128149053174   -5.76748891009049    0.03621724446569
C         6.39073894964808   -4.29231537823231   -1.45896798935643
H         6.29918205566853   -3.21992592098078   -1.61254785148679
H         5.87615329418955   -4.81214764629873   -2.26220615477710
H         7.44602493333638   -4.55339046095613   -1.47791762358744
C         8.08049523388051   -2.33738262447450    2.48880053378024
C         8.88759031928672   -2.81733864500668    1.35658425196523
C         9.45268015505416   -4.08625492251099    1.39585322668179
H         9.29383810477865   -4.71234273945253    2.26152925246471
C        10.20895053410402   -4.53944881835836    0.33173777488354
H        10.64521677925558   -5.52758865669644    0.36647131142003
C        10.40668499588924   -3.73228613714970   -0.77656617161812
H        10.99783444593675   -4.08970815519559   -1.60756732292219
C         9.84623141518034   -2.46742167166112   -0.81650277588702
H         9.99783073751045   -1.83187366753192   -1.67660838685502
C         9.08802767050846   -2.00823808844258    0.24509677185694
H         8.65725503089530   -1.01831198603091    0.20894020025599
C         8.58914551742733   -1.48000431112937    3.54184161135795
C         9.96942188768829   -1.01741977001436    3.65781430996506
C        12.10651169451665   -1.04119515763252    2.68092480795307
H        12.66713372889009   -1.79339443761874    2.12289761044602
H        12.51881669577378   -0.93943830865439    3.69084151987703
C        12.10636832708868    0.29975211449534    1.96163266885299
H        11.64486883237721    0.19934992614407    0.98223181216852
H        13.12630461136408    0.65379977125298    1.84352639994656
H        11.54533712784999    1.03772638546445    2.53234142728843

