66
CSD_code = GIYWAO | q = 1 | S = 0 | Stoichiometry = C27H34N3OPd(1+) | MND = 4
Pd        6.04241645491996    3.92166053678006    4.34813088836666
N         6.38655244283012    1.98042220512675    4.45097764623869
N         5.75636362760971    5.90415202183645    4.31245547224876
N         5.51126189372512    4.28581228286308    6.44065175315572
O         5.49214582429867    1.16578059838577    5.15551554843784
H         4.60290001767048    1.53128040696949    5.01709907425976
C         6.40780969103649    3.65161378778987    2.38617467489715
C         7.56497782587623    2.93122735585636    2.08449473542821
C         7.91430322499612    2.68328628324489    0.76702017215902
H         8.81461431732463    2.13196182239363    0.53806679236747
C         7.10472790936020    3.14629540822171   -0.25882528468939
H         7.37809578829719    2.95444505694896   -1.28461152133935
C         5.94252106063366    3.83655904387518    0.03129138461511
H         5.30170020753301    4.17754094739547   -0.76761193454438
C         5.59303282306002    4.09259438190035    1.35233345988069
H         4.67534250185230    4.63448854748584    1.56462199081282
C         8.37727957654774    2.37523437990872    3.24772431762407
H         9.25174770258881    1.83187504722403    2.89373095547308
H         8.70979252967722    3.20905271066372    3.88722351661309
C         7.47599376253802    1.46223671202577    4.03541384044814
C         7.85191746136718    0.03729809485991    4.21131474191382
H         7.08377392994615   -0.50736254462331    4.75385135590371
H         8.79435827136389   -0.03278650040503    4.75261414214515
H         8.00002015637109   -0.41972232090194    3.23362605345394
C         6.10459563152671    6.72284792422146    3.32287979809228
H         6.50900777461433    6.26258726490718    2.42887819394926
C         5.96404725846185    8.09775812651286    3.39199051683764
H         6.26644508747314    8.68763892880179    2.54446053840750
C         5.44506843313396    8.68845852535595    4.54087460683381
C         5.11017138029079    7.81960587328001    5.57797880128511
H         4.73984189698537    8.21940528609520    6.50665588853252
C         5.26716080384569    6.44609194736476    5.44742110736908
C         4.97176229169725    5.51467961924898    6.55547058756789
C         4.21726384296045    5.86800096406962    7.66654306171303
H         3.75936175642833    6.84169224975670    7.70812373191060
C         4.02545888576111    4.97118965272639    8.71750452689950
C         4.63029235748647    3.72405133746146    8.58546114647574
H         4.54975853846796    2.97496783571641    9.35357189167897
C         5.34400289042046    3.42489976134064    7.43726726409820
H         5.80657933648940    2.45092811986016    7.32240710951191
C         5.25247925242518   10.18066586617872    4.70394083911296
C         5.64782441172961   10.95698285448474    3.44633354965238
H         6.70145938199083   10.82216405620016    3.21398430841276
H         5.47815150363301   12.01766142437050    3.61166005810839
H         5.04817262943047   10.65340681097356    2.59147662392908
C         6.12425695743980   10.66342142710207    5.87293640034841
H         5.84066579128240   10.19198929970086    6.81008232094759
H         6.01526901836635   11.73815389026609    5.98936631731696
H         7.17234989226824   10.44433868958984    5.68110077203869
C         3.77192074013250   10.45852311086246    5.00400268332048
H         3.14419448858612   10.08632048913075    4.19729353458998
H         3.61279084402927   11.52947358965004    5.09443858377019
H         3.45276632420937    9.99227825488793    5.93211309817921
C         3.19472300767869    5.37381655661591    9.91722242330188
C         3.82096506411018    6.62077540323681   10.55915273456031
H         4.84698714765932    6.41973505783438   10.85999578082849
H         3.25420763946686    6.89931697854443   11.44333261203491
H         3.82087213847735    7.46893627161040    9.87986272681250
C         1.76854898648379    5.68917466992694    9.44144145892730
H         1.75201183356173    6.51066863058744    8.73014415022015
H         1.15327416046689    5.96772570526821   10.29254425372078
H         1.32326417036710    4.81622698291867    8.96888100299749
C         3.12360784945482    4.26815911932326   10.97245517287791
H         2.65982002360338    3.36932105040836   10.57277788221621
H         2.51843040343743    4.60895042510175   11.80843575053471
H         4.11191917219819    4.02466370259781   11.35555241409165

