81
CSD_code = GIYXAQ | q = 0 | S = 0 | Stoichiometry = C34H36N2NiO4S4 | MND = 4
Ni        4.58900540451597    0.00039254313071    0.00026044663547
S         3.31831402300929    0.09185078773831    1.81171231508800
S         5.46857090900854   -1.65650562701148    1.17746766988006
C         4.20676426475752   -1.29209582024650    2.26612748835660
N         3.94570582754663   -2.00626238811066    3.35068069683165
C         2.87044418308258   -1.65983409696181    4.26260315501987
H         2.53483623265431   -0.64851932010254    4.01845839146773
H         3.27266293134596   -1.66872049898438    5.28013901322040
C         1.72968917335660   -2.63496029428810    4.13529614376106
C         1.01566638891708   -2.71562372998715    2.94243064205220
H         1.26760802375549   -2.05595968305647    2.12603344470021
C        -0.00900347001873   -3.62308355418407    2.79877454131179
H        -0.56900666272782   -3.69221231923746    1.88002218248307
C        -0.35162609057385   -4.47796639328383    3.84958166498084
C         0.35787171549543   -4.40136138116908    5.04241561873074
H         0.12037064662591   -5.04458608880253    5.87500001719632
C         1.39095309008253   -3.48716676367227    5.17277945539585
H         1.93280826425821   -3.43606073246207    6.10676552885952
C        -1.78487125514924   -6.21128473446485    4.62789056138307
H        -0.97990847446337   -6.89663581888632    4.91282647288341
H        -2.61332334314177   -6.78365765926803    4.21371582937430
H        -2.12927177226574   -5.66612814558551    5.51271643036257
C         4.70879187444703   -3.19223042431972    3.69694788209088
H         5.30938412897080   -3.47193603311511    2.82761541685101
H         4.00187243611516   -3.99699224083067    3.91981461669883
C         5.59568997615496   -2.92264853957358    4.88393241791457
C         5.35641114856061   -3.52185783943374    6.11498466502898
H         4.54214033442273   -4.22458136947114    6.21968837331244
C         6.15454467246054   -3.23786515335454    7.20242546316759
H         5.97906493936563   -3.70070917073512    8.16058091649658
C         7.21387374225087   -2.33637161730459    7.08595180337640
C         7.45656019542351   -1.73278963002838    5.85594740601822
H         8.26825920286286   -1.03453624145678    5.72876192690695
C         6.65063224958741   -2.02881577555475    4.77140976342102
H         6.84823948886547   -1.55819945726617    3.81995200117110
C         9.02139432310212   -1.22699230186624    8.16538381066607
H         9.78587875301512   -1.56335565733854    7.45779538759645
H         9.44164577941257   -1.21476089975764    9.16975131309960
H         8.69644319049610   -0.21655308527136    7.89748381016054
O        -1.37994050595437   -5.33391201208804    3.60563973948973
O         7.93653083279888   -2.12206606892298    8.21798076703260
S         5.85976414049190   -0.09134183877814   -1.81113640483740
S         3.70957321027450    1.65720343619466   -1.17717028055539
C         4.97120456831580    1.29243053797487   -2.26589799076170
N         5.23213698073092    2.00632461959418   -3.35066143861377
C         6.30738345888488    1.65976222236299   -4.26255040918799
H         6.64287402275955    0.64841263625260   -4.01840142384672
H         5.90517099384789    1.66868973989546   -5.28008390083462
C         7.44821890544497    2.63479178488461   -4.13524338002903
C         8.16223074966958    2.71545845119802   -2.94237355047723
H         7.91022719602667    2.05586546803031   -2.12593801382923
C         9.18691041175704    3.62291025880674   -2.79871677662043
H         9.74686964349380    3.69206723716142   -1.87993915561486
C         9.52956843491637    4.47775892798202   -3.84953664924818
C         8.82013650251411    4.40108752218489   -5.04240623611201
H         9.05769115682314    5.04424869739525   -5.87502233830074
C         7.78702349201768    3.48693172938726   -5.17275791966220
H         7.24521312326568    3.43578277330679   -6.10676766501069
C        10.96265910272823    6.21118621780026   -4.62783863863206
H        10.15756173836025    6.89636218309238   -4.91281465216608
H        11.79096899201444    6.78374054309851   -4.21363465654625
H        11.30721535270943    5.66609579137594   -5.51264575179769
C         4.46909226518713    3.19228308288336   -3.69705104456270
H         3.86844142348880    3.47203572309303   -2.82777094658386
H         5.17602065889059    3.99704173217104   -3.91992020452256
C         3.58225032952673    2.92265316355015   -4.88406811999783
C         3.82156296541316    3.52181851467590   -6.11513625995356
H         4.63587662815151    4.22448858752510   -6.21986269592820
C         3.02344640076762    3.23780144819109   -7.20258518028524
H         3.19896634306179    3.70059427062885   -8.16075820100049
C         1.96409193152177    2.33633875742496   -7.08610017661264
C         1.72138407363830    1.73278633987892   -5.85608451570110
H         0.90967120303951    1.03455088388146   -5.72889245712842
C         2.52729750621473    2.02883306447579   -4.77154170527903
H         2.32967166234955    1.55824718701135   -3.82007210756401
C         0.15639624519381    1.22716838646943   -8.16545513410131
H        -0.60793108445142    1.56359646780959   -7.45772930436059
H        -0.26399733096276    1.21510436667518   -9.16976518509320
H         0.48121183093319    0.21664800240711   -7.89769519437308
O        10.55785992938541    5.33373667042117   -3.60560262833798
O         1.24140806918104    2.12205964820943   -8.21811689640560

