102
CSD_code = GIYZIZ | q = 0 | S = 0 | Stoichiometry = C43H51F5N2Zn | MND = 3
Zn       -0.60645071561049    4.39813671518462    4.63702756721356
F        -0.76069814645807    6.15291840610564    1.53542495093972
F         1.19120131501730    7.75698260583478    0.55549936371100
F         3.53944300837399    8.04298074965483    1.91841472943134
F         3.93490219260954    6.66231047729380    4.25000360157248
F         1.96507490086450    4.95473542524867    5.14720199909660
C         0.56305395389898    5.50252428130346    3.37041969263128
C         0.39938728069904    6.24664999357022    2.21562204368779
C         1.38130914770049    7.08860898101281    1.70640059128476
C         2.57936680553585    7.23453808768294    2.39400382929134
C         2.77978679888506    6.52941288945039    3.57456634055101
C         1.77119453986676    5.68725815561372    4.01544513331269
N        -0.15628855479429    1.21878978059878    5.30654346675671
C        -2.70216217560868    3.52289426021090    1.89943965449767
H        -2.35413519920574    4.05888618626042    2.78458891947284
H        -3.70961581332201    3.15618709784757    2.08442607690551
H        -2.73348532122131    4.22637226640308    1.07317812921262
C        -0.09475874183243    2.24353234988441    4.44047513225900
C        -0.62928104799376    1.29100243199665    6.64598334086868
C         0.30881306862919    1.39268398252429    7.67510157487930
C        -0.16363494850775    1.46466782907302    8.98015748544571
H         0.53503958279775    1.55998434910275    9.79621642704710
C        -1.51717812471376    1.41292497092589    9.24442792328585
H        -1.86872773352144    1.47015010908895   10.26356129469907
C        -2.42823677674809    1.27806404219106    8.21198998982405
H        -3.47856384311921    1.22140677729288    8.44448929701513
C        -2.00590940902118    1.21972641344318    6.89137640384723
C        -2.98154498246867    1.03387303682911    5.74862243900503
H        -2.64613288079989    1.65942135121862    4.91261771586568
C        -2.98304962559174   -0.43402834534973    5.30141626516678
H        -2.01355230452352   -0.74222475045028    4.91939448823593
H        -3.71937113970551   -0.58018491186598    4.51428262750305
H        -3.24312305043656   -1.07825364951949    6.13904187027793
C        -4.41321776009452    1.44373695340931    6.09060340467588
H        -4.44293598206632    2.43238720799906    6.53768856350927
H        -4.87104644191875    0.73188136501062    6.77368025233518
H        -5.00979554094537    1.46161579772939    5.18106704283928
C         1.79632137341355    1.39249579608931    7.40738010536837
H         1.97434250839244    1.29652179853599    6.33235721691283
C         2.45268741401082    0.19266949056213    8.09765998411795
H         1.97118891203598   -0.73669851475007    7.79854706191790
H         2.38382392306518    0.27959609590588    9.17853400017648
H         3.50452844462378    0.13850204062053    7.82681494103599
C         2.44343920973980    2.70231021861069    7.85792797365905
H         2.04055890257069    3.53419240396526    7.28779550401112
H         3.51700675016896    2.65975236763250    7.68945259094480
H         2.26800964224813    2.88465193519623    8.91472081945181
C         0.34996791647615    0.07617250921569    4.74369778971009
H         0.41133459367974   -0.84796978202738    5.28098697904957
C         0.72792158052702    0.39967800634689    3.48458262495308
H         1.15537843983098   -0.19649699981589    2.70558806680529
N         0.44953148118989    1.73052879781090    3.32180976784392
C         0.71375541086841    2.47175089021563    2.13791713781460
C        -0.35948436462918    2.84011892850455    1.32221856950106
C        -0.09189916872299    3.62242748267566    0.20691621307128
H        -0.90133398228683    3.93820639749476   -0.43092617993825
C         1.19903769036068    4.01323673049811   -0.08963982066590
H         1.38768569116001    4.63930643060985   -0.94847174079704
C         2.25335217341586    3.58136177134333    0.69209591321471
H         3.26020323309638    3.85623262732964    0.41985240218421
C         2.03619964180285    2.79507524596336    1.81550307463759
C         3.21106785342487    2.23217641056530    2.58444389630800
H         2.85080056781200    1.74050946338610    3.49327722163575
C         3.90183443959102    1.17693609743019    1.71095862833484
H         3.19344679954149    0.42232547236868    1.37436606065569
H         4.69213150111564    0.68328964344569    2.27188469898169
H         4.34189132796346    1.64124165302305    0.83225597308035
C         4.21936543416739    3.29520367242551    3.01741688090774
H         3.77513899625186    3.96904093035931    3.74083746126876
H         4.57916374440207    3.87701989522262    2.17402170460335
H         5.07530335356769    2.81530046997947    3.48699173929927
C        -1.76624701136564    2.35603862163524    1.58852743730316
H        -1.75983984190252    1.68742043704558    2.45561358590207
C        -2.28252675957716    1.55011789640817    0.39219278085404
H        -3.25437589522460    1.12118379529038    0.62575155052464
H        -1.59709525965119    0.74014529041975    0.15045909116489
H        -2.39117453308340    2.18042075721064   -0.48556172867786
C        -0.65700443921595    5.92576795125601    6.70613733221544
C        -1.81924682072369    5.48035116133458    5.91549042823558
C        -2.99572026178101    4.86750090094149    6.64915369039391
H        -3.43148445845631    5.61449310113320    7.31618467979881
H        -2.68878237357265    4.01441588667925    7.25111058651053
H        -3.76963966998185    4.54620507143774    5.95516632510339
C        -2.05419535975630    6.58011349812415    4.96904124632974
C        -1.05033118355605    7.50063182435147    5.10538041901286
C        -0.19425033159010    7.10458552320324    6.18193457211933
C         0.98776854824953    7.89424569402355    6.64697644150409
H         1.68938044506167    7.26465299150291    7.19076941148844
H         0.67232553338125    8.70164534676400    7.31029927468509
H         1.51172191087516    8.34476581252669    5.80457688077688
C        -0.86455208375892    8.74294384946163    4.29463151348493
H        -1.46190428184620    8.70331692832136    3.38702141092952
H         0.18131456647744    8.87333493352085    4.01474071194954
H        -1.16732455671117    9.62264348258050    4.86480409998628
C        -3.22602590958912    6.67461961460011    4.04148329503281
H        -3.86341530155924    7.51300451247308    4.32679717285562
H        -3.82609709946743    5.76800786620026    4.07091835417608
H        -2.90585120426994    6.83743158924404    3.01271212209949
C        -0.22160091892358    5.26328593639349    7.97587571674318
H        -0.78672723192773    5.66868757537279    8.81875073329685
H         0.83356830265860    5.44486867107255    8.16930959196886
H        -0.39104428856739    4.18803343270618    7.94507638400521

