31
CSD_code = GIYZOG | q = 1 | S = 0 | Stoichiometry = C14H12AgN4(1+) | MND = 2
Ag       -2.84202697726530    4.91853280825558   -8.78665264573979
N        -1.11202680646684    5.65576193146500   -9.83316415656128
N         0.51249144637695    6.21513493110907  -11.22671533405445
H         1.06404409913091    6.24548458087649  -12.06969572244864
N        -4.59332931682899    4.13148936380092   -7.81235935770444
N        -6.31129112743954    3.49431448244371   -6.57299438395588
H        -6.93788968018103    3.43860137019463   -5.78555515860796
C        -0.60927381500422    5.50014974647653  -11.03628281061665
H        -1.03800960918622    4.87244817805512  -11.79541947764743
C        -0.26586245020832    6.53216978897494   -9.18315247141354
C        -0.32088526574558    7.04153979097604   -7.89023356215346
H        -1.12408127459654    6.75392196723195   -7.21896839784717
C         0.67787445382638    7.91194949745520   -7.51273762431100
H         0.67398483920607    8.33063041223891   -6.51881392474987
C         1.70655547792136    8.27123366115068   -8.39106555045640
H         2.46580960778256    8.95695203590239   -8.05015275434360
C         1.77606669189319    7.77416384449879   -9.67584653208208
H         2.57031216963055    8.05368764651412  -10.34885432832128
C         0.77267684664943    6.89596077571109  -10.06123455183994
C        -5.22061228044331    4.27432708674257   -6.66816682792789
H        -4.90799237935315    4.93986738953719   -5.88505697439256
C        -6.41354322673049    2.78003458455988   -7.74299877247096
C        -7.31876505440991    1.83548438066211   -8.20726313329711
H        -8.15833398694391    1.51733719291992   -7.61077250712210
C        -7.09151775589738    1.32379187260108   -9.46790150265224
H        -7.77001298739479    0.58708510854978   -9.86769148216890
C        -6.00376093253681    1.73208305256300  -10.24819871455581
H        -5.87468129649425    1.29900612983631  -11.22750925302151
C        -5.10255143016375    2.66874310258976   -9.79250661609472
H        -4.25351248249301    2.99557929093076  -10.38711754797805
C        -5.31705549662977    3.19393399517957   -8.52261792346821

