84
CSD_code = GIYZOF | q = 0 | S = 0 | Stoichiometry = C37H39F5N2Zn | MND = 3
Zn        5.33803367474681    5.77614441621772   -0.30966786946446
C         5.88300964955631    7.54546241103523    0.83773983292566
C         6.88126980275467    9.15764208596702    2.01009430033830
H         7.69734984691536    9.67780142924799    2.46824128364842
C         5.55697224211315    9.43980055886833    1.96720283612131
H         5.00023346176212   10.25889497129851    2.37326560232074
N         7.05467316704041    7.99233892647201    1.31328616921192
C         8.30829432890482    7.34380050179272    1.14993615912685
C         8.73367183055796    6.44209419493147    2.12485004180572
C         9.97295007293169    5.84134380352007    1.96399735197888
H        10.31517873162814    5.13588977133670    2.70682663212416
C        10.77635033051143    6.11708052922551    0.86555804103937
C        10.32078868230640    7.01589624530202   -0.08958642889255
H        10.93472040640656    7.23014002325636   -0.95210505758157
C         9.08856912823979    7.63956140873399    0.03379176041829
C         7.85611784216513    6.12302645889978    3.29500718843570
H         7.61071693812756    7.02422101509300    3.85688209160018
H         8.34922507558465    5.42215993070257    3.96221482697310
H         6.92359215017737    5.67574031215004    2.95124471387324
C        12.09437330940553    5.42808994633953    0.69724564906460
H        11.94826848884422    4.47985148541921    0.17931470814634
H        12.54848309742071    5.21647751752035    1.66224327597050
H        12.77824554596197    6.03261245207129    0.10674182487446
C         8.58804452822056    8.59452857280194   -1.00622237926331
H         8.37008418495901    9.56827589333300   -0.56754630696655
H         7.66899170360969    8.21296359225386   -1.45187494692066
H         9.32672202565712    8.72551376787699   -1.79168677115405
N         4.96593457678558    8.43937842156801    1.24418691276630
C         3.56765487381709    8.35448745473650    1.00279790652701
C         3.06679675792468    8.62652638546379   -0.27081811745123
C         1.69732656851258    8.55398992083436   -0.46722174166183
H         1.29690313441308    8.75449292708380   -1.44961561344564
C         0.83061586322764    8.20709660450153    0.56113715559494
C         1.35950148011123    7.93956403708038    1.81528714013979
H         0.69768996402965    7.66425950362274    2.62353839258717
C         2.72282869464986    8.01135309342373    2.05893628484781
C         3.98184684711801    8.95852984612307   -1.40917848690891
H         3.43140909389259    9.45235622987250   -2.20506040325276
H         4.40738921012240    8.03676755155694   -1.81457738889908
H         4.79938751085113    9.60354744261459   -1.09133916317971
C        -0.64204939559664    8.12593397713768    0.30937315103930
H        -1.04992230186583    9.12200779078199    0.13803179843350
H        -1.15920267670619    7.68160291730705    1.15565903873385
H        -0.84316957432780    7.52803429470131   -0.57720123501365
C         3.27047961505669    7.71520885142045    3.42255746628109
H         4.16312170544724    7.09594025439887    3.35966206014317
H         2.52924736972733    7.19346994823784    4.02164657447013
H         3.53548997246937    8.63691781476715    3.94150299684060
C         6.38115514344018    3.56884990020723   -0.37114410648709
C         6.48341171599716    4.53264139356688   -1.47984667543649
C         5.36781382272301    4.19817041651629   -2.36419025908102
C         4.62229657088424    3.20277305850459   -1.77819698301214
C         5.24506478823740    2.81209845997094   -0.55833753499708
C         7.44835324862884    3.34172374066379    0.65726302746437
H         7.01818823931824    3.17267310025673    1.64393828277549
H         8.12404667941914    4.19178141714808    0.71906523785738
H         8.03701374613861    2.45907965070381    0.39738807944205
C         7.83652644554669    4.90017648406520   -2.05165311121621
H         8.52766274708612    5.22479352685103   -1.27658117615133
H         7.75679045264419    5.69547383806361   -2.79038530967437
H         8.26774657378641    4.02687839953505   -2.54553044571557
C         5.12456914569629    4.82355023280629   -3.70347869332875
H         5.39171738532650    4.12900036291922   -4.50218111499785
H         5.71780757151186    5.72754481605268   -3.82881444141082
H         4.07435177755096    5.08523269308518   -3.82781706131069
C         3.36691869786929    2.59277335519989   -2.31481276810461
H         2.64247434946597    2.42922485464110   -1.51662427254497
H         3.57594312928535    1.62580686489444   -2.77579990732598
H         2.91423451359310    3.23553801199909   -3.06591093555823
C         4.72859734607001    1.73441534869145    0.34183684465373
H         3.65487458655355    1.84123461630250    0.50205491088568
H         5.22527834044113    1.76406226846666    1.30889417890928
H         4.90059283115473    0.75162105833776   -0.10006811118873
C         3.40837159858580    5.31576468570673    0.14535698312874
C         2.20966207141217    5.33277625056572   -0.54409357165264
C         1.01048842087719    4.89820248543524    0.00800423011672
C         0.99278228607376    4.42747896125245    1.31455110023696
C         2.17318119523251    4.39420898435172    2.04784641191774
C         3.33768990213192    4.83161751294432    1.43797343502301
F         2.19341724775463    5.81395771888794   -1.80202814659680
F        -0.13423806712011    4.94499220057712   -0.69552249888681
F        -0.16031330766031    4.02700131627897    1.87290203066858
F         2.16154715972368    3.96397887338036    3.32179832090579
F         4.49967210704791    4.82698565182714    2.14624479258162

