88
CSD_code = GIZDAW | q = 0 | S = 0 | Stoichiometry = C34H43F5N4OTi | MND = 8
Ti        0.97374389837865    7.97805268565538    4.64439892248187
N         1.29669189143220    6.30407701696786    4.39708402419913
N         3.18948328703603    5.65826230141127    3.27390561251117
N        -1.00623738375912    8.15024134396450    4.59277991347794
N         0.34518602916528    8.84491287191898    2.98003745585795
O         3.65669306563132    4.69981643167586    2.34146276897594
F         2.51137790736442    2.59811787206141    3.75023130164110
F         0.83967118802980    0.75225609927778    2.69530390293771
F        -1.46421432952277    1.52621419693818    1.46823517716001
F        -2.09572680129294    4.18650302810575    1.30274044462845
F        -0.39614330891267    6.04389306835830    2.35417546577697
C         1.94646167007045    5.48962364705246    3.61008042428450
C         1.10858407604567    4.36637791985218    3.04179148580216
C         1.40650609850602    3.01160151363984    3.13042747822703
C         0.54364039922481    2.05389798989645    2.60275928419432
C        -0.63622464387288    2.44451915101913    1.97787704738898
C        -0.95629417627062    3.79680912355437    1.89334651382259
C        -0.08373223988696    4.73093911975761    2.42951039895057
C         5.06568461676339    4.77746426881763    2.14351054630977
C         5.80662481580746    4.67519230137870    3.47911739663330
C         5.43174662779491    6.08026159401760    1.42368102599043
C         5.38258931600595    3.56846350649945    1.26173456847829
C        -0.90509554534942    8.64474086674303    3.37150823734772
C        -2.09543341254015    9.01469645637545    2.55220938495686
C        -2.68080978400045    8.15701580209355    1.62791082509315
C        -3.78924023905745    8.56560983125624    0.90546964696985
C        -4.32446782301537    9.82762218262268    1.09679898008442
C        -3.74849704300829   10.68600499978295    2.01815004589475
C        -2.64155774212485   10.28203681753118    2.74246009207509
C        -2.24363485204680    7.60454200623394    5.10598230093233
C        -1.90163980924548    6.27415189583740    5.78228669298325
C        -2.91585723594718    8.56577335777451    6.09194485115019
C         0.69360932706906    9.05831707964542    1.58914973205317
C         0.54356302276893   10.52189204933449    1.15396366791982
C         2.13775344837248    8.58391146791274    1.41362741702202
C         1.35355593065606    8.53707222773172    6.85496228579804
C         1.07295846932104    9.76930953542306    6.20385940187443
C         2.05538146865263    9.97883532971038    5.20478381604982
C         2.96196984314331    8.88275921675609    5.23991337676862
C         2.53636890343362    7.99685223532922    6.27016379805887
C         0.69688635913411    8.00594510385186    8.09982052392562
C         0.02561351173793   10.77930355803278    6.57706382690770
C         2.21445792765834   11.26431494440127    4.44417758864947
C         4.24017531707307    8.70050963522541    4.47255773055831
C         3.31848253944460    6.80505183010281    6.74377526812242
H         6.88001367918506    4.65764811749790    3.31237102487344
H         5.55313621387626    5.52614332216780    4.10568935473354
H         5.50823688951848    3.76511492923162    3.99403498640389
H         6.50493037083203    6.13170999617932    1.26250709987940
H         5.11808985254541    6.93056633333813    2.02308831970091
H         4.92437711138712    6.12845383126594    0.46285050796785
H         6.44347537452188    3.54118929871861    1.03109993839332
H         5.10406121288490    2.65406714517101    1.77857987352346
H         4.81625977083472    3.62714882954936    0.33576555056912
H        -2.27635971037842    7.16956516804235    1.47721137906504
H        -4.23657571191291    7.89042607937349    0.19146676288091
H        -5.18904689650117   10.14200192457885    0.53157608370658
H        -4.16152783891410   11.67184841848366    2.17420681390562
H        -2.18945153509186   10.95346366342462    3.46042234730306
H        -2.94426573700809    7.41514421028536    4.27473430193348
H        -2.79640812122288    5.80491256754236    6.18533472607450
H        -1.18654556564476    6.44972840888255    6.58772483278764
H        -1.43786801312905    5.60383676275224    5.05777664488122
H        -3.82745181096409    8.12220738507087    6.48477817111759
H        -3.17254316954840    9.49891626368154    5.59461546080187
H        -2.24352691025909    8.78070427958368    6.91906081781157
H         0.03528739637524    8.44340698239245    0.95146642425541
H         0.83359384124994   10.62480221134916    0.11102956860832
H         1.17971409475210   11.16448206723484    1.75736170451112
H        -0.48857078418445   10.84959233614245    1.25828030688816
H         2.39731167551431    8.52870449283528    0.35879114852260
H         2.81661244044421    9.27957640659063    1.90546278078864
H         2.25749830624244    7.59700359429656    1.86882823857237
H         0.69699387062700    6.91481073082579    8.10613836094434
H         1.24432325016771    8.34434265567847    8.98448816879819
H        -0.33205551044298    8.35185178712970    8.19287030795029
H        -0.72423511741172   10.89586750509627    5.79060794940475
H         0.49071521826013   11.75405822290933    6.73918766756695
H        -0.48362521848152   10.49668363146439    7.49609564000211
H         2.88767573676645   11.14812184433925    3.59609323837944
H         2.63581053726377   12.03323909327186    5.09926490569222
H         1.25321273239966   11.63009829767492    4.08146608383989
H         4.21392066500539    7.74522865614208    3.94173326379468
H         5.08942726231812    8.68803941181924    5.15983343303799
H         4.39991154505872    9.50649103774172    3.75780523491814
H         3.69342492194301    6.23669452875830    5.89310776330302
H         4.17017245509798    7.13130686555802    7.34727209535502
H         2.70171664036270    6.14563522451737    7.35199006553344

