100
CSD_code = GIZFOK | q = 0 | S = 0 | Stoichiometry = C42H48N4P3RhSi2 | MND = 4
Rh       -2.65686583061416    2.30047280781357   21.22056753557301
P        -0.50750488196361    2.19806043297353   21.91765696641014
P        -4.65608366019164    1.98141005779413   20.25033524064416
P        -3.31229512098282    3.68411101032383   22.78981126114433
Si       -0.37191881961814    1.45926792595105   19.08219292476493
Si       -2.99803050948754   -0.01163331043315   18.89245581922492
N        -1.95534394235284    1.12142496579207   19.64984450935735
N        -4.74943940499607    4.62916931720653   22.66871607365195
N        -3.51218924011405    3.13413367624503   24.38767189158450
N        -2.18730580595052    4.97389615963079   22.97348068960250
C         0.55172120890454    2.42587418386904   20.46852157960699
C        -4.73021783184715    0.25857004521694   19.68464048132341
C        -0.31523702374141    2.57757155217280   17.52679628967159
C         0.65742635688644   -0.10420427729077   18.71211956877144
C        -3.17654031449515    0.21965131745838   17.00355896903339
C        -2.53720044527168   -1.84583394108389   19.17795703488023
C        -0.08848322758565    0.50077273851579   22.42990655160544
C        -1.07651695301787   -0.47435062919665   22.38876564438675
C        -0.78677925241036   -1.77716424003272   22.75159277824762
C         0.49438185184652   -2.11123466094115   23.15799506672692
C         1.48296806083841   -1.14072345499912   23.20593361160127
C         1.19348525332379    0.16270620372038   22.84756440931010
C         0.30378475815365    3.11537533339982   23.27655836178190
C         1.25747885578847    4.10277517925172   23.06778897236441
C         1.80599356504926    4.78148083703592   24.14173702794328
C         1.40179975264771    4.48894212441342   25.43240984733275
C         0.45114868168162    3.50453204362477   25.64992502743057
C        -0.09147641878173    2.82206910094440   24.57915267075917
C        -4.86771997521701    2.90170085068982   18.69952886446742
C        -5.90092569468163    2.67270340767595   17.79773676574238
C        -5.94906054344068    3.37781156116165   16.60876831529498
C        -4.96614136321350    4.30757563245389   16.30812813954849
C        -3.92724996475514    4.53129818126659   17.19674541964095
C        -3.88170524064786    3.82948531455158   18.38662664472654
C        -6.23315588518587    2.17059669297298   21.14797890866632
C        -7.32542227837004    2.91317611840970   20.72316003522951
C        -8.47795528217044    2.94599978012585   21.48976418015649
C        -8.54444291042909    2.25387897348623   22.68628803139907
C        -7.44560609886499    1.53568578347794   23.13189601923827
C        -6.29718995280296    1.49985926633843   22.36697496596307
C        -5.92900710329698    4.58475277387298   23.36679982436342
C        -6.82767504356272    5.41148909577764   22.76413564036358
C        -6.19225895549454    5.97031132747507   21.63138627663295
C        -4.93053122196503    5.46174576736886   21.59153038747653
C        -3.90212289541770    3.76206136188434   25.54664578138898
C        -3.94435680206264    2.84267142035303   26.54980492700096
C        -3.57527766011975    1.59266770093888   25.99552680424388
C        -3.32276276745274    1.80266527077196   24.67606805317939
C        -1.83569540166753    5.78678192345523   24.01897232001685
C        -0.94106563939991    6.71320549071498   23.57510821370714
C        -0.73008639089218    6.47096408256114   22.19829700408539
C        -1.49919643803792    5.39965320356799   21.86294729495684
H         1.56303246536211    2.06873773642270   20.65815122267669
H         0.58484812262605    3.48846082650059   20.22949551922643
H        -5.56416559034731    0.09996422003871   19.00294795905015
H        -4.86949908461470   -0.37839861990798   20.55833612482524
H         0.70747346700847    2.78317161358944   17.22708857074299
H        -0.81531801785080    3.52865301703058   17.67780493565691
H        -0.80688258587750    2.08092865981525   16.69925817299867
H         1.68289744944036    0.14327365636925   18.45844993666282
H         0.22928059449436   -0.63088324526629   17.86738376439179
H         0.67475391198378   -0.78608388870183   19.55604258910908
H        -3.93843378558700   -0.43358225609943   16.59038993996360
H        -2.23813420669392   -0.02597055661449   16.51900397873885
H        -3.43047748997028    1.24029509644451   16.73711605874071
H        -3.30441457120473   -2.50857446547821   18.79051377734511
H        -2.38683454229109   -2.08424237839825   20.22461022869713
H        -1.61480714167198   -2.07354449828693   18.65866346510331
H        -2.07065877859521   -0.19591399963862   22.04513464420662
H        -1.55660907474934   -2.53516686183064   22.72139874716859
H         0.72437384399132   -3.12834847149758   23.44029731055806
H         2.48115788990762   -1.40327039934950   23.52599196848170
H         1.96048850571493    0.92434561671843   22.89633120556023
H         1.57564257398180    4.34469108779918   22.06466008820639
H         2.54996264397834    5.54575096360794   23.96903069370221
H         1.82719054773375    5.02522074883078   26.26791103875177
H         0.13207651575986    3.26931655644745   26.65508494772043
H        -0.82559663543190    2.04501443327635   24.74672382387583
H        -6.66344818575653    1.93907773598406   18.02101181280127
H        -6.75286414121816    3.19866437624709   15.90894012559374
H        -5.00750309077180    4.85179641055735   15.37592985643460
H        -3.15587787495509    5.24837363564639   16.95548478014115
H        -3.06298260439274    3.96645777700222   19.08980165689662
H        -7.27421759123943    3.47630184164003   19.80290898045756
H        -9.32814660064274    3.52024942795570   21.15113905494511
H        -9.44728135952067    2.28243094077285   23.27848245499779
H        -7.48607787031085    1.01018810882066   24.07531988885702
H        -5.42497396695020    0.95225650869733   22.70882131206625
H        -6.04481655483940    3.96658169266289   24.23460662929902
H        -7.83129598451839    5.60143322437143   23.09016746535000
H        -6.62318509178438    6.66493555866715   20.93725052600674
H        -4.13095480413548    5.64042947850617   20.89751982000897
H        -4.14292222754242    4.80709582003702   25.56580059188289
H        -4.21048844261311    3.03004091495197   27.57198929568739
H        -3.51120580040214    0.66013768259612   26.52108161933462
H        -3.01980897306983    1.12564399428503   23.89411123839452
H        -2.21494149957375    5.62918966324396   25.00770785823573
H        -0.47567441312491    7.47860290437074   24.16463969993826
H        -0.08329611227302    7.02607817259841   21.54727015535595
H        -1.61763199001422    4.88212605783317   20.92281884292478

