96
CSD_code = GIZFUS | q = 1 | S = 0 | Stoichiometry = C38H50ClN6Ru(1+) | MND = 9
C         9.92578234450786   11.10874809248837   -2.13170232210566
H        10.37208093643041   10.62419189008361   -2.98369253000584
C         8.27478948051303   21.06956074124382    3.93102077150526
H         7.50047658491750   20.41958351824038    4.32973384501713
H         7.91710894078383   21.50130174854961    2.99876060627262
H         8.45117347697516   21.87368475158305    4.64005230448225
C        12.02398906647989   21.72650276612625    1.13659209894308
C        10.07007847976894   19.64725400147412    4.98865493365003
H         9.33115399111687   18.95730563350098    5.38760212907482
H        10.26037844463842   20.41258329233612    5.73552296781512
H        10.99429610942067   19.09978334808214    4.81444527547596
C        11.13002991879312   22.22411131879459    3.73811313091389
H        10.79393012227569   22.43157454919203    4.74108541356193
C         9.55142068908737   20.26097381741513    3.68629716469342
H         9.29090562377974   19.43776339556791    3.01368248066540
C        10.10534854900275   17.84750095978372    0.24177654944287
C        13.85696754802516   21.93471786591681   -0.60605676919045
H        14.15998981222823   21.55867889213231   -1.58028464125841
H        14.56118027071870   21.56891461973729    0.13729739227417
H        13.91066362086521   23.01913208945571   -0.63821524116130
C         8.82198980523396   12.63156895959746    2.56204313217562
H         8.35806545367400   13.13275405956986    3.40731152410227
H         9.85668032040591   12.96140861838018    2.49135197893555
H         8.81635606538479   11.56146149256825    2.75019401239286
C         6.66576577448862   17.82309435714688   -2.99410732273682
H         6.96919667453702   17.16303002427219   -3.80099083226146
N         9.14268603434849   18.74795084273340   -0.12429028207322
C         5.62226346834587   17.40941708534654   -2.12206860617406
C        11.66284991963849   12.70696509913269   -3.88879056428443
H        12.14888917004101   13.44162539880590   -4.52629661394371
H        11.29182977540695   11.90929603691829   -4.52592060756085
H        12.40585316518534   12.29780001505134   -3.20838523710999
C         4.84735964340394   15.30229908223430   -0.99201508356302
H         4.53728430737280   14.27956640033374   -1.18758797689932
H         4.11847418726396   15.75252992328372   -0.32341035005802
H         5.81464612496987   15.28369095619045   -0.49185612855482
C         3.56468564073506   16.28329955632106   -2.93453335871559
H         3.08763245681544   15.32224923524290   -3.10480312947591
H         3.64558945313104   16.80176119458971   -3.88759984966955
H         2.92897918963463   16.86979704533384   -2.27513944699974
C        12.51582166927354   22.80115585131359    1.86273389457774
H        13.24706112880889   23.45787546773302    1.42247166874619
N         8.63405102390699   16.45037627137772   -0.90390210091245
Cl        7.11739728204470   17.37894564870090    1.32924851910689
C         9.34455859785837   13.06720856335803   -0.90993203909026
C         9.94408134716659   12.49231206876080   -2.03345026749889
C        11.07028360955782   20.91327137205284    1.75435550861928
C         8.05593032507148   12.96300977670847    1.27881224619833
H         8.05370477696386   14.05109283399029    1.16029157022378
C        10.52574403874293   13.37199747276132   -3.11561680594506
H        10.92982947358100   14.27993321862086   -2.65054425308591
C         8.72438761049328   12.31650634536489    0.08915288486860
C         8.74430824883807   10.93357383464174   -0.04746814918714
H         8.28523698322394   10.31810926232160    0.70901533580481
C         7.32718323131598   21.41671216452755   -1.85213390215218
H         6.56883701185301   22.10866188494973   -2.22029098885332
H         8.21711928666090   21.52522387848601   -2.46709982753581
H         7.56870996912726   21.69575466661332   -0.82824257644817
C         5.20715430295483   18.31574156636035   -1.12989632380889
H         4.39213103035906   18.04996420521768   -0.46519926699086
C         5.79252704230311   19.60010553934805   -1.01115825178881
H         5.40584082004743   20.29944858205603   -0.27769773984586
C         4.94803677568404   16.07198692200327   -2.30999719300438
H         5.55686711500774   15.48062328712255   -3.00276082118755
N         8.37998777086475   15.23648309980740   -1.23271086617738
N         9.41253159688175   19.90764090680052    0.35262574518574
C         6.79389718643754   20.02023577737055   -1.90879156172350
C         6.59604547984047   12.51649886445501    1.38578773717368
H         6.09384411206458   13.09271792227106    2.15822090870922
H         6.52340163576167   11.46381635729847    1.64299850540994
H         6.07983955828406   12.67990856344205    0.44291478625515
N         9.35845982710247   14.48290958077633   -0.77373023724461
N        10.53629323603141   19.80981987233451    1.03352610510783
C         9.39748001087722   13.78164080174433   -4.07059739164166
H         9.78638636454111   14.43066080156704   -4.85165253882422
H         8.60905568577460   14.30646445988785   -3.53419328715443
H         8.96669457197913   12.89924222570512   -4.53717791394680
C         7.22967602338799   19.11022401903939   -2.90575000266845
H         7.95181781118352   19.43481723821572   -3.64698096584537
C        12.43954523275145   21.46002247877006   -0.29179862698418
H        12.40678320296417   20.37804224982144   -0.47065818012102
C         9.33969817988867   10.33878780346241   -1.14246624079810
H         9.34247453617478    9.26347808141494   -1.23225185477635
C        10.28146074364681   15.22470139092702   -0.12917370520459
H        11.15202486775997   14.80168918663785    0.32485002373016
C        10.60166525444163   21.13888151721817    3.04900915918858
C         9.81113889448686   16.51776674548317   -0.20951335419512
C        11.01770750618664   18.55082587712544    0.99849872897233
H        11.91595926827986   18.25927155049104    1.49967491859444
C        11.43007271956831   22.13272815596269   -1.23007207672298
H        11.69830372161000   21.94143117997685   -2.26641040322179
H        11.42813487393090   23.20745999207864   -1.06654238253345
H        10.42533180851751   21.75650922953117   -1.04900305295292
Ru        7.45977913943853   18.04511377541238   -0.89968475985422
C        12.07489871660006   23.04306417652505    3.15193536823357
H        12.47058712150659   23.88312275951415    3.70153547761742

